2024_89_CemigReconfigurationCases/1_3_EstudoCasos/CETU04/CETU04Transformadores.dss
new transformer.1107696 Phases=1,Windings=3,Buses=[BMT172861143.2 BBT24742314.1.0 BBT24742314.0.2],Conns=[wye wye wye],kvs=[7.967 0.12 0.12],kvas=[5.000000000 5.000000000 5.000000000],Taps=[1,1.000000000,1.000000000],%loadloss=1.900000000,%noloadloss=0.600000000
new transformer.1123586 Phases=1,Windings=3,Buses=[BMT172861126.2 BBT27968656.1.0 BBT27968656.0.2],Conns=[wye wye wye],kvs=[7.967 0.12 0.12],kvas=[5.000000000 5.000000000 5.000000000],Taps=[1,1.000000000,1.000000000],%loadloss=1.900000000,%noloadloss=0.600000000
new transformer.1123803 Phases=1,Windings=3,Buses=[BMT150353654.3 BBT28032839.1.0 BBT28032839.0.2],Conns=[wye wye wye],kvs=[7.967 0.12 0.12],kvas=[15.000000000 15.000000000 15.000000000],Taps=[1,1.000000000,1.000000000],%loadloss=1.600000000,%noloadloss=0.400000000
new transformer.1170038 Phases=1,Windings=3,Buses=[BMT165138618.3 BBT36297389.1.0 BBT36297389.0.2],Conns=[wye wye wye],kvs=[7.967 0.12 0.12],kvas=[5.000000000 5.000000000 5.000000000],Taps=[1,1.000000000,1.000000000],%loadloss=1.900000000,%noloadloss=0.600000000
new transformer.1171053 Phases=1,Windings=3,Buses=[BMT165945467.1 BBT36472039.1.0 BBT36472039.0.2],Conns=[wye wye wye],kvs=[7.967 0.12 0.12],kvas=[5.000000000 5.000000000 5.000000000],Taps=[1,1.000000000,1.000000000],%loadloss=1.900000000,%noloadloss=0.600000000
new transformer.1293665 Phases=1,Windings=3,Buses=[BMT148873651.1 BBT78677909.1.0 BBT78677909.0.2],Conns=[wye wye wye],kvs=[7.967 0.12 0.12],kvas=[15.000000000 15.000000000 15.000000000],Taps=[1,1.000000000,1.000000000],%loadloss=1.600000000,%noloadloss=0.400000000
new transformer.1316856 Phases=1,Windings=3,Buses=[BMT103801714.1 BBT91817609.1.0 BBT91817609.0.2],Conns=[wye wye wye],kvs=[7.967 0.12 0.12],kvas=[5.000000000 5.000000000 5.000000000],Taps=[1,1.000000000,1.000000000],%loadloss=1.900000000,%noloadloss=0.600000000
new transformer.131699 Phases=1,Windings=3,Buses=[BMT171152961.2 BBT1176925.1.0 BBT1176925.0.2],Conns=[wye wye wye],kvs=[7.967 0.12 0.12],kvas=[25.000000000 25.000000000 25.000000000],Taps=[1,1.000000000,1.000000000],%loadloss=1.420000000,%noloadloss=0.320000000
new transformer.131706 Phases=3,Windings=2,Buses=[BMT150353115.1.2.3 BBT1176981.1.2.3.0],Conns=[delta wye],kvs=[13.8 0.22],kvas=[30.000000000 30.000000000],Taps=[1,1.000000000],%loadloss=1.667000000,%noloadloss=0.433333000
new transformer.131713 Phases=3,Windings=2,Buses=[BMT171152949.1.2.3 BBT1177093.1.2.3.0],Conns=[delta wye],kvs=[13.8 0.22],kvas=[30.000000000 30.000000000],Taps=[1,1.000000000],%loadloss=1.667000000,%noloadloss=0.433333000
new transformer.131727 Phases=1,Windings=3,Buses=[BMT171152957.2 BBT1177219.1.0 BBT1177219.0.2],Conns=[wye wye wye],kvs=[7.967 0.12 0.12],kvas=[35.000000000 35.000000000 35.000000000],Taps=[1,1.000000000,1.000000000],%loadloss=1.293000000,%noloadloss=0.342857000
new transformer.131734 Phases=1,Windings=3,Buses=[BMT103774120.3 BBT1177275.1.0 BBT1177275.0.2],Conns=[wye wye wye],kvs=[7.967 0.12 0.12],kvas=[10.000000000 10.000000000 10.000000000],Taps=[1,1.000000000,1.000000000],%loadloss=1.800000000,%noloadloss=0.450000000
new transformer.131741 Phases=3,Windings=2,Buses=[BMT161962571.1.2.3 BBT1177331.1.2.3.0],Conns=[delta wye],kvs=[13.8 0.22],kvas=[75.000000000 75.000000000],Taps=[1,1.000000000],%loadloss=1.340000000,%noloadloss=0.340000000
new transformer.131748 Phases=3,Windings=2,Buses=[BMT150354216.1.2.3 BBT1177422.1.2.3.0],Conns=[delta wye],kvs=[13.8 0.22],kvas=[45.000000000 45.000000000],Taps=[1,1.000000000],%loadloss=1.522000000,%noloadloss=0.377777000
new transformer.131755 Phases=1,Windings=3,Buses=[BMT173104526.2 BBT1177457.1.0 BBT1177457.0.2],Conns=[wye wye wye],kvs=[7.967 0.12 0.12],kvas=[10.000000000 10.000000000 10.000000000],Taps=[1,1.000000000,1.000000000],%loadloss=1.800000000,%noloadloss=0.450000000
new transformer.131762 Phases=1,Windings=3,Buses=[BMT171142277.2 BBT1177471.1.0 BBT1177471.0.2],Conns=[wye wye wye],kvs=[7.967 0.12 0.12],kvas=[35.000000000 35.000000000 35.000000000],Taps=[1,1.000000000,1.000000000],%loadloss=1.293000000,%noloadloss=0.342857000
new transformer.131776 Phases=1,Windings=3,Buses=[BMT164979873.3 BBT1177583.1.0 BBT1177583.0.2],Conns=[wye wye wye],kvs=[7.967 0.12 0.12],kvas=[10.000000000 10.000000000 10.000000000],Taps=[1,1.000000000,1.000000000],%loadloss=1.800000000,%noloadloss=0.450000000
new transformer.131783 Phases=1,Windings=3,Buses=[BMT150354252.3 BBT1177639.1.0 BBT1177639.0.2],Conns=[wye wye wye],kvs=[7.967 0.12 0.12],kvas=[35.000000000 35.000000000 35.000000000],Taps=[1,1.000000000,1.000000000],%loadloss=1.293000000,%noloadloss=0.342857000
new transformer.131804 Phases=1,Windings=3,Buses=[BMT158128686.2 BBT1177758.1.0 BBT1177758.0.2],Conns=[wye wye wye],kvs=[7.967 0.12 0.12],kvas=[10.000000000 10.000000000 10.000000000],Taps=[1,1.000000000,1.000000000],%loadloss=1.800000000,%noloadloss=0.450000000
new transformer.131811 Phases=1,Windings=3,Buses=[BMT171152959.2 BBT1177814.1.0 BBT1177814.0.2],Conns=[wye wye wye],kvs=[7.967 0.12 0.12],kvas=[25.000000000 25.000000000 25.000000000],Taps=[1,1.000000000,1.000000000],%loadloss=1.420000000,%noloadloss=0.320000000
new transformer.131818 Phases=3,Windings=2,Buses=[BMT172328743.1.2.3 BBT1177877.1.2.3.0],Conns=[delta wye],kvs=[13.8 0.22],kvas=[45.000000000 45.000000000],Taps=[1,1.000000000],%loadloss=1.522000000,%noloadloss=0.377777000
new transformer.1318186 Phases=3,Windings=2,Buses=[BMT170162441.1.2.3 BBT92374368.1.2.3.0],Conns=[delta wye],kvs=[13.8 0.22],kvas=[45.000000000 45.000000000],Taps=[1,1.000000000],%loadloss=1.522000000,%noloadloss=0.377777000
new transformer.1318200 Phases=3,Windings=2,Buses=[BMT170162440.1.2.3 BBT92375334.1.2.3.0],Conns=[delta wye],kvs=[13.8 0.22],kvas=[45.000000000 45.000000000],Taps=[1,1.000000000],%loadloss=1.522000000,%noloadloss=0.377777000
new transformer.131825 Phases=1,Windings=3,Buses=[BMT150353241.3 BBT1177975.1.0 BBT1177975.0.2],Conns=[wye wye wye],kvs=[7.967 0.12 0.12],kvas=[25.000000000 25.000000000 25.000000000],Taps=[1,1.000000000,1.000000000],%loadloss=1.420000000,%noloadloss=0.320000000
new transformer.131832 Phases=3,Windings=2,Buses=[BMT150353120.1.2.3 BBT1177989.1.2.3.0],Conns=[delta wye],kvs=[13.8 0.22],kvas=[75.000000000 75.000000000],Taps=[1,1.000000000],%loadloss=1.340000000,%noloadloss=0.340000000
new transformer.131839 Phases=1,Windings=3,Buses=[BMT150997760.2 BBT1178108.1.0 BBT1178108.0.2],Conns=[wye wye wye],kvs=[7.967 0.12 0.12],kvas=[25.000000000 25.000000000 25.000000000],Taps=[1,1.000000000,1.000000000],%loadloss=1.420000000,%noloadloss=0.320000000
new transformer.131846 Phases=1,Windings=3,Buses=[BMT164979874.3 BBT1178199.1.0 BBT1178199.0.2],Conns=[wye wye wye],kvs=[7.967 0.12 0.12],kvas=[15.000000000 15.000000000 15.000000000],Taps=[1,1.000000000,1.000000000],%loadloss=1.600000000,%noloadloss=0.400000000
new transformer.131853 Phases=1,Windings=3,Buses=[BMT163760106.1 BBT1178290.1.0 BBT1178290.0.2],Conns=[wye wye wye],kvs=[7.967 0.12 0.12],kvas=[10.000000000 10.000000000 10.000000000],Taps=[1,1.000000000,1.000000000],%loadloss=1.800000000,%noloadloss=0.450000000
new transformer.1079129 Phases=1,Windings=3,Buses=[BMT150353636.3 BBT17651251.1.0 BBT17651251.0.2],Conns=[wye wye wye],kvs=[7.967 0.12 0.12],kvas=[5.000000000 5.000000000 5.000000000],Taps=[1,1.000000000,1.000000000],%loadloss=1.900000000,%noloadloss=0.600000000
new transformer.1079171 Phases=1,Windings=3,Buses=[BMT166967088.2 BBT17669332.1.0 BBT17669332.0.2],Conns=[wye wye wye],kvs=[7.967 0.12 0.12],kvas=[5.000000000 5.000000000 5.000000000],Taps=[1,1.000000000,1.000000000],%loadloss=1.900000000,%noloadloss=0.600000000
new transformer.1079178 Phases=1,Windings=3,Buses=[BMT168836084.2 BBT17669437.1.0 BBT17669437.0.2],Conns=[wye wye wye],kvs=[7.967 0.12 0.12],kvas=[5.000000000 5.000000000 5.000000000],Taps=[1,1.000000000,1.000000000],%loadloss=1.900000000,%noloadloss=0.600000000
new transformer.1079185 Phases=1,Windings=3,Buses=[BMT168836087.2 BBT17669577.1.0 BBT17669577.0.2],Conns=[wye wye wye],kvs=[7.967 0.12 0.12],kvas=[5.000000000 5.000000000 5.000000000],Taps=[1,1.000000000,1.000000000],%loadloss=1.900000000,%noloadloss=0.600000000
new transformer.1079192 Phases=1,Windings=3,Buses=[BMT168836092.2 BBT17669745.1.0 BBT17669745.0.2],Conns=[wye wye wye],kvs=[7.967 0.12 0.12],kvas=[5.000000000 5.000000000 5.000000000],Taps=[1,1.000000000,1.000000000],%loadloss=1.900000000,%noloadloss=0.600000000
new transformer.1079199 Phases=1,Windings=3,Buses=[BMT168836089.2 BBT17669843.1.0 BBT17669843.0.2],Conns=[wye wye wye],kvs=[7.967 0.12 0.12],kvas=[5.000000000 5.000000000 5.000000000],Taps=[1,1.000000000,1.000000000],%loadloss=1.900000000,%noloadloss=0.600000000
new transformer.1079206 Phases=1,Windings=3,Buses=[BMT168248569.2 BBT17673308.1.0 BBT17673308.0.2],Conns=[wye wye wye],kvs=[7.967 0.12 0.12],kvas=[5.000000000 5.000000000 5.000000000],Taps=[1,1.000000000,1.000000000],%loadloss=1.900000000,%noloadloss=0.600000000
new transformer.1079248 Phases=1,Windings=3,Buses=[BMT172861134.2 BBT17691746.1.0 BBT17691746.0.2],Conns=[wye wye wye],kvs=[7.967 0.12 0.12],kvas=[5.000000000 5.000000000 5.000000000],Taps=[1,1.000000000,1.000000000],%loadloss=1.900000000,%noloadloss=0.600000000
new transformer.1079269 Phases=1,Windings=3,Buses=[BMT151208361.2 BBT17693034.1.0 BBT17693034.0.2],Conns=[wye wye wye],kvs=[7.967 0.12 0.12],kvas=[15.000000000 15.000000000 15.000000000],Taps=[1,1.000000000,1.000000000],%loadloss=1.600000000,%noloadloss=0.400000000
new transformer.1079290 Phases=1,Windings=3,Buses=[BMT150353584.2 BBT17697444.1.0 BBT17697444.0.2],Conns=[wye wye wye],kvs=[7.967 0.12 0.12],kvas=[5.000000000 5.000000000 5.000000000],Taps=[1,1.000000000,1.000000000],%loadloss=1.900000000,%noloadloss=0.600000000
new transformer.1079584 Phases=1,Windings=3,Buses=[BMT150353680.2 BBT17797173.1.0 BBT17797173.0.2],Conns=[wye wye wye],kvs=[7.967 0.12 0.12],kvas=[5.000000000 5.000000000 5.000000000],Taps=[1,1.000000000,1.000000000],%loadloss=1.900000000,%noloadloss=0.600000000
new transformer.1079591 Phases=1,Windings=3,Buses=[BMT150353681.2 BBT17798223.1.0 BBT17798223.0.2],Conns=[wye wye wye],kvs=[7.967 0.12 0.12],kvas=[5.000000000 5.000000000 5.000000000],Taps=[1,1.000000000,1.000000000],%loadloss=1.900000000,%noloadloss=0.600000000
new transformer.1090616 Phases=1,Windings=3,Buses=[BMT102838794.1 BBT21114592.1.0 BBT21114592.0.2],Conns=[wye wye wye],kvs=[7.967 0.12 0.12],kvas=[35.000000000 35.000000000 35.000000000],Taps=[1,1.000000000,1.000000000],%loadloss=1.293000000,%noloadloss=0.342857000
new transformer.1091071 Phases=1,Windings=3,Buses=[BMT120823005.3 BBT21198151.1.0 BBT21198151.0.2],Conns=[wye wye wye],kvs=[7.967 0.12 0.12],kvas=[5.000000000 5.000000000 5.000000000],Taps=[1,1.000000000,1.000000000],%loadloss=1.900000000,%noloadloss=0.600000000
new transformer.1091113 Phases=1,Windings=3,Buses=[BMT166960749.3 BBT21204073.1.0 BBT21204073.0.2],Conns=[wye wye wye],kvs=[7.967 0.12 0.12],kvas=[5.000000000 5.000000000 5.000000000],Taps=[1,1.000000000,1.000000000],%loadloss=1.900000000,%noloadloss=0.600000000
new transformer.1091638 Phases=1,Windings=3,Buses=[BMT168708453.2 BBT21274829.1.0 BBT21274829.0.2],Conns=[wye wye wye],kvs=[7.967 0.12 0.12],kvas=[10.000000000 10.000000000 10.000000000],Taps=[1,1.000000000,1.000000000],%loadloss=1.800000000,%noloadloss=0.450000000
new transformer.1119764 Phases=1,Windings=3,Buses=[BMT172861140.2 BBT27132310.1.0 BBT27132310.0.2],Conns=[wye wye wye],kvs=[7.967 0.12 0.12],kvas=[5.000000000 5.000000000 5.000000000],Taps=[1,1.000000000,1.000000000],%loadloss=1.900000000,%noloadloss=0.600000000
new transformer.1158936 Phases=1,Windings=3,Buses=[BMT169560676.2 BBT34565582.1.0 BBT34565582.0.2],Conns=[wye wye wye],kvs=[7.967 0.12 0.12],kvas=[15.000000000 15.000000000 15.000000000],Taps=[1,1.000000000,1.000000000],%loadloss=1.600000000,%noloadloss=0.400000000
new transformer.1159727 Phases=1,Windings=3,Buses=[BMT102838682.1 BBT34718294.1.0 BBT34718294.0.2],Conns=[wye wye wye],kvs=[7.967 0.12 0.12],kvas=[10.000000000 10.000000000 10.000000000],Taps=[1,1.000000000,1.000000000],%loadloss=1.800000000,%noloadloss=0.450000000
new transformer.1202693 Phases=1,Windings=3,Buses=[BMT169524871.1 BBT42645955.1.0 BBT42645955.0.2],Conns=[wye wye wye],kvs=[7.967 0.12 0.12],kvas=[5.000000000 5.000000000 5.000000000],Taps=[1,1.000000000,1.000000000],%loadloss=1.900000000,%noloadloss=0.600000000
new transformer.1250202 Phases=1,Windings=3,Buses=[BMT160010754.2 BBT60281671.1.0 BBT60281671.0.2],Conns=[wye wye wye],kvs=[7.967 0.12 0.12],kvas=[5.000000000 5.000000000 5.000000000],Taps=[1,1.000000000,1.000000000],%loadloss=1.900000000,%noloadloss=0.600000000
new transformer.1250895 Phases=1,Windings=3,Buses=[BMT170101279.2 BBT60475424.1.0 BBT60475424.0.2],Conns=[wye wye wye],kvs=[7.967 0.12 0.12],kvas=[5.000000000 5.000000000 5.000000000],Taps=[1,1.000000000,1.000000000],%loadloss=1.900000000,%noloadloss=0.600000000
new transformer.1298586 Phases=1,Windings=3,Buses=[BMT163806553.2 BBT81520637.1.0 BBT81520637.0.2],Conns=[wye wye wye],kvs=[7.967 0.12 0.12],kvas=[5.000000000 5.000000000 5.000000000],Taps=[1,1.000000000,1.000000000],%loadloss=1.900000000,%noloadloss=0.600000000
new transformer.1298670 Phases=1,Windings=3,Buses=[BMT168608126.1 BBT81524844.1.0 BBT81524844.0.2],Conns=[wye wye wye],kvs=[7.967 0.12 0.12],kvas=[5.000000000 5.000000000 5.000000000],Taps=[1,1.000000000,1.000000000],%loadloss=1.900000000,%noloadloss=0.600000000
new transformer.1298915 Phases=1,Windings=3,Buses=[BMT150353937.2 BBT81553866.1.0 BBT81553866.0.2],Conns=[wye wye wye],kvs=[7.967 0.12 0.12],kvas=[5.000000000 5.000000000 5.000000000],Taps=[1,1.000000000,1.000000000],%loadloss=1.900000000,%noloadloss=0.600000000
new transformer.1300119 Phases=1,Windings=3,Buses=[BMT166967067.2 BBT84550258.1.0 BBT84550258.0.2],Conns=[wye wye wye],kvs=[7.967 0.12 0.12],kvas=[5.000000000 5.000000000 5.000000000],Taps=[1,1.000000000,1.000000000],%loadloss=1.900000000,%noloadloss=0.600000000
new transformer.132301 Phases=1,Windings=3,Buses=[BMT158325925.2 BBT1181370.1.0 BBT1181370.0.2],Conns=[wye wye wye],kvs=[7.967 0.12 0.12],kvas=[10.000000000 10.000000000 10.000000000],Taps=[1,1.000000000,1.000000000],%loadloss=1.800000000,%noloadloss=0.450000000
new transformer.132308 Phases=1,Windings=3,Buses=[BMT164979875.3 BBT1181384.1.0 BBT1181384.0.2],Conns=[wye wye wye],kvs=[7.967 0.12 0.12],kvas=[25.000000000 25.000000000 25.000000000],Taps=[1,1.000000000,1.000000000],%loadloss=1.420000000,%noloadloss=0.320000000
new transformer.132315 Phases=1,Windings=3,Buses=[BMT150354265.3 BBT1181426.1.0 BBT1181426.0.2],Conns=[wye wye wye],kvs=[7.967 0.12 0.12],kvas=[10.000000000 10.000000000 10.000000000],Taps=[1,1.000000000,1.000000000],%loadloss=1.800000000,%noloadloss=0.450000000
new transformer.132322 Phases=1,Windings=3,Buses=[BMT150353193.3 BBT1181440.1.0 BBT1181440.0.2],Conns=[wye wye wye],kvs=[7.967 0.12 0.12],kvas=[5.000000000 5.000000000 5.000000000],Taps=[1,1.000000000,1.000000000],%loadloss=1.900000000,%noloadloss=0.600000000
new transformer.132336 Phases=1,Windings=3,Buses=[BMT164979870.3 BBT1181468.1.0 BBT1181468.0.2],Conns=[wye wye wye],kvs=[7.967 0.12 0.12],kvas=[15.000000000 15.000000000 15.000000000],Taps=[1,1.000000000,1.000000000],%loadloss=1.600000000,%noloadloss=0.400000000
new transformer.1112981 Phases=1,Windings=3,Buses=[BMT166080909.1 BBT25741382.1.0 BBT25741382.0.2],Conns=[wye wye wye],kvs=[7.967 0.12 0.12],kvas=[10.000000000 10.000000000 10.000000000],Taps=[1,1.000000000,1.000000000],%loadloss=1.800000000,%noloadloss=0.450000000
new transformer.131993 Phases=3,Windings=2,Buses=[BMT150354217.1.2.3 BBT1179445.1.2.3.0],Conns=[delta wye],kvs=[13.8 0.22],kvas=[75.000000000 75.000000000],Taps=[1,1.000000000],%loadloss=1.340000000,%noloadloss=0.340000000
new transformer.132000 Phases=3,Windings=2,Buses=[BMT170227521.1.2.3 BBT1179550.1.2.3.0],Conns=[delta wye],kvs=[13.8 0.22],kvas=[45.000000000 45.000000000],Taps=[1,1.000000000],%loadloss=1.522000000,%noloadloss=0.377777000
new transformer.132007 Phases=1,Windings=3,Buses=[BMT170227519.2 BBT1179641.1.0 BBT1179641.0.2],Conns=[wye wye wye],kvs=[7.967 0.12 0.12],kvas=[10.000000000 10.000000000 10.000000000],Taps=[1,1.000000000,1.000000000],%loadloss=1.800000000,%noloadloss=0.450000000
new transformer.132014 Phases=1,Windings=3,Buses=[BMT150353196.3 BBT1179753.1.0 BBT1179753.0.2],Conns=[wye wye wye],kvs=[7.967 0.12 0.12],kvas=[5.000000000 5.000000000 5.000000000],Taps=[1,1.000000000,1.000000000],%loadloss=1.900000000,%noloadloss=0.600000000
new transformer.132021 Phases=3,Windings=2,Buses=[BMT168297714.1.2.3 BBT1179767.1.2.3.0],Conns=[delta wye],kvs=[13.8 0.22],kvas=[30.000000000 30.000000000],Taps=[1,1.000000000],%loadloss=1.667000000,%noloadloss=0.433333000
new transformer.132028 Phases=1,Windings=3,Buses=[BMT103775240.1 BBT1179781.1.0 BBT1179781.0.2],Conns=[wye wye wye],kvs=[7.967 0.12 0.12],kvas=[10.000000000 10.000000000 10.000000000],Taps=[1,1.000000000,1.000000000],%loadloss=1.800000000,%noloadloss=0.450000000
new transformer.1320517 Phases=1,Windings=3,Buses=[BMT170631388.1 BBT93687561.1.0 BBT93687561.0.2],Conns=[wye wye wye],kvs=[7.967 0.12 0.12],kvas=[5.000000000 5.000000000 5.000000000],Taps=[1,1.000000000,1.000000000],%loadloss=1.900000000,%noloadloss=0.600000000
new transformer.132056 Phases=1,Windings=3,Buses=[BMT103774309.2 BBT1179879.1.0 BBT1179879.0.2],Conns=[wye wye wye],kvs=[7.967 0.12 0.12],kvas=[15.000000000 15.000000000 15.000000000],Taps=[1,1.000000000,1.000000000],%loadloss=1.600000000,%noloadloss=0.400000000
new transformer.132063 Phases=1,Windings=3,Buses=[BMT171152948.2 BBT1179893.1.0 BBT1179893.0.2],Conns=[wye wye wye],kvs=[7.967 0.12 0.12],kvas=[15.000000000 15.000000000 15.000000000],Taps=[1,1.000000000,1.000000000],%loadloss=1.600000000,%noloadloss=0.400000000
new transformer.132070 Phases=3,Windings=2,Buses=[BMT160805673.1.2.3 BBT1179970.1.2.3.0],Conns=[delta wye],kvs=[13.8 0.22],kvas=[30.000000000 30.000000000],Taps=[1,1.000000000],%loadloss=1.667000000,%noloadloss=0.433333000
new transformer.132077 Phases=1,Windings=3,Buses=[BMT163760118.2 BBT1180047.1.0 BBT1180047.0.2],Conns=[wye wye wye],kvs=[7.967 0.12 0.12],kvas=[15.000000000 15.000000000 15.000000000],Taps=[1,1.000000000,1.000000000],%loadloss=1.600000000,%noloadloss=0.400000000
new transformer.132084 Phases=3,Windings=2,Buses=[BMT167649848.1.2.3 BBT1180061.1.2.3.0],Conns=[delta wye],kvs=[13.8 0.22],kvas=[45.000000000 45.000000000],Taps=[1,1.000000000],%loadloss=1.522000000,%noloadloss=0.377777000
new transformer.132091 Phases=3,Windings=2,Buses=[BMT160809057.1.2.3 BBT1180096.1.2.3.0],Conns=[delta wye],kvs=[13.8 0.22],kvas=[75.000000000 75.000000000],Taps=[1,1.000000000],%loadloss=1.340000000,%noloadloss=0.340000000
new transformer.132105 Phases=1,Windings=3,Buses=[BMT164292656.2 BBT1180243.1.0 BBT1180243.0.2],Conns=[wye wye wye],kvs=[7.967 0.12 0.12],kvas=[10.000000000 10.000000000 10.000000000],Taps=[1,1.000000000,1.000000000],%loadloss=1.800000000,%noloadloss=0.450000000
new transformer.132119 Phases=1,Windings=3,Buses=[BMT103766868.1 BBT1180313.1.0 BBT1180313.0.2],Conns=[wye wye wye],kvs=[7.967 0.12 0.12],kvas=[15.000000000 15.000000000 15.000000000],Taps=[1,1.000000000,1.000000000],%loadloss=1.600000000,%noloadloss=0.400000000
new transformer.132126 Phases=3,Windings=2,Buses=[BMT165160305.1.2.3 BBT1180355.1.2.3.0],Conns=[delta wye],kvs=[13.8 0.22],kvas=[30.000000000 30.000000000],Taps=[1,1.000000000],%loadloss=1.667000000,%noloadloss=0.433333000
new transformer.132133 Phases=3,Windings=2,Buses=[BMT171152950.1.2.3 BBT1180439.1.2.3.0],Conns=[delta wye],kvs=[13.8 0.22],kvas=[75.000000000 75.000000000],Taps=[1,1.000000000],%loadloss=1.340000000,%noloadloss=0.340000000
new transformer.132154 Phases=3,Windings=2,Buses=[BMT165160302.1.2.3 BBT1180558.1.2.3.0],Conns=[delta wye],kvs=[13.8 0.22],kvas=[30.000000000 30.000000000],Taps=[1,1.000000000],%loadloss=1.667000000,%noloadloss=0.433333000
new transformer.132168 Phases=1,Windings=3,Buses=[BMT103774106.3 BBT1180642.1.0 BBT1180642.0.2],Conns=[wye wye wye],kvs=[7.967 0.12 0.12],kvas=[10.000000000 10.000000000 10.000000000],Taps=[1,1.000000000,1.000000000],%loadloss=1.800000000,%noloadloss=0.450000000
new transformer.132175 Phases=3,Windings=2,Buses=[BMT169407284.1.2.3 BBT1180719.1.2.3.0],Conns=[delta wye],kvs=[13.8 0.22],kvas=[75.000000000 75.000000000],Taps=[1,1.000000000],%loadloss=1.340000000,%noloadloss=0.340000000
new transformer.132182 Phases=1,Windings=3,Buses=[BMT160135054.3 BBT1180817.1.0 BBT1180817.0.2],Conns=[wye wye wye],kvs=[7.967 0.12 0.12],kvas=[10.000000000 10.000000000 10.000000000],Taps=[1,1.000000000,1.000000000],%loadloss=1.800000000,%noloadloss=0.450000000
new transformer.132189 Phases=1,Windings=3,Buses=[BMT150354022.2 BBT1180831.1.0 BBT1180831.0.2],Conns=[wye wye wye],kvs=[7.967 0.12 0.12],kvas=[10.000000000 10.000000000 10.000000000],Taps=[1,1.000000000,1.000000000],%loadloss=1.800000000,%noloadloss=0.450000000
new transformer.132196 Phases=1,Windings=3,Buses=[BMT170533471.2 BBT1180845.1.0 BBT1180845.0.2],Conns=[wye wye wye],kvs=[7.967 0.12 0.12],kvas=[15.000000000 15.000000000 15.000000000],Taps=[1,1.000000000,1.000000000],%loadloss=1.600000000,%noloadloss=0.400000000
new transformer.132203 Phases=1,Windings=3,Buses=[BMT173104521.2 BBT1180887.1.0 BBT1180887.0.2],Conns=[wye wye wye],kvs=[7.967 0.12 0.12],kvas=[10.000000000 10.000000000 10.000000000],Taps=[1,1.000000000,1.000000000],%loadloss=1.800000000,%noloadloss=0.450000000
new transformer.132210 Phases=1,Windings=3,Buses=[BMT150353128.3 BBT1180901.1.0 BBT1180901.0.2],Conns=[wye wye wye],kvs=[7.967 0.12 0.12],kvas=[10.000000000 10.000000000 10.000000000],Taps=[1,1.000000000,1.000000000],%loadloss=1.800000000,%noloadloss=0.450000000
new transformer.132224 Phases=1,Windings=3,Buses=[BMT170227518.3 BBT1180929.1.0 BBT1180929.0.2],Conns=[wye wye wye],kvs=[7.967 0.12 0.12],kvas=[10.000000000 10.000000000 10.000000000],Taps=[1,1.000000000,1.000000000],%loadloss=1.800000000,%noloadloss=0.450000000
new transformer.132231 Phases=1,Windings=3,Buses=[BMT150353130.3 BBT1181048.1.0 BBT1181048.0.2],Conns=[wye wye wye],kvs=[7.967 0.12 0.12],kvas=[15.000000000 15.000000000 15.000000000],Taps=[1,1.000000000,1.000000000],%loadloss=1.600000000,%noloadloss=0.400000000
new transformer.1068916 Phases=1,Windings=3,Buses=[BMT168251496.3 BBT14797988.1.0 BBT14797988.0.2],Conns=[wye wye wye],kvs=[7.967 0.12 0.12],kvas=[5.000000000 5.000000000 5.000000000],Taps=[1,1.000000000,1.000000000],%loadloss=1.900000000,%noloadloss=0.600000000
new transformer.1069434 Phases=1,Windings=3,Buses=[BMT168251557.3 BBT15006084.1.0 BBT15006084.0.2],Conns=[wye wye wye],kvs=[7.967 0.12 0.12],kvas=[5.000000000 5.000000000 5.000000000],Taps=[1,1.000000000,1.000000000],%loadloss=1.900000000,%noloadloss=0.600000000
new transformer.1069441 Phases=1,Windings=3,Buses=[BMT168251556.3 BBT15006959.1.0 BBT15006959.0.2],Conns=[wye wye wye],kvs=[7.967 0.12 0.12],kvas=[5.000000000 5.000000000 5.000000000],Taps=[1,1.000000000,1.000000000],%loadloss=1.900000000,%noloadloss=0.600000000
new transformer.1069798 Phases=1,Windings=3,Buses=[BMT170101275.2 BBT15183989.1.0 BBT15183989.0.2],Conns=[wye wye wye],kvs=[7.967 0.12 0.12],kvas=[5.000000000 5.000000000 5.000000000],Taps=[1,1.000000000,1.000000000],%loadloss=1.900000000,%noloadloss=0.600000000
new transformer.1069980 Phases=1,Windings=3,Buses=[BMT156193075.1 BBT15223980.1.0 BBT15223980.0.2],Conns=[wye wye wye],kvs=[7.967 0.12 0.12],kvas=[5.000000000 5.000000000 5.000000000],Taps=[1,1.000000000,1.000000000],%loadloss=1.900000000,%noloadloss=0.600000000
new transformer.1164788 Phases=1,Windings=3,Buses=[BMT171973341.2 BBT35486698.1.0 BBT35486698.0.2],Conns=[wye wye wye],kvs=[7.967 0.12 0.12],kvas=[5.000000000 5.000000000 5.000000000],Taps=[1,1.000000000,1.000000000],%loadloss=1.900000000,%noloadloss=0.600000000
new transformer.1238351 Phases=1,Windings=3,Buses=[BMT168608461.1 BBT55923884.1.0 BBT55923884.0.2],Conns=[wye wye wye],kvs=[7.967 0.12 0.12],kvas=[10.000000000 10.000000000 10.000000000],Taps=[1,1.000000000,1.000000000],%loadloss=1.800000000,%noloadloss=0.450000000
new transformer.1314182 Phases=3,Windings=2,Buses=[BMT151761823.1.2.3 BBT90952731.1.2.3.0],Conns=[delta wye],kvs=[13.8 0.22],kvas=[45.000000000 45.000000000],Taps=[1,1.000000000],%loadloss=1.522000000,%noloadloss=0.377777000
new transformer.1341741 Phases=1,Windings=3,Buses=[BMT152139286.1 BBT109279851.1.0 BBT109279851.0.2],Conns=[wye wye wye],kvs=[7.967 0.12 0.12],kvas=[5.000000000 5.000000000 5.000000000],Taps=[1,1.000000000,1.000000000],%loadloss=1.900000000,%noloadloss=0.600000000
new transformer.1341874 Phases=3,Windings=2,Buses=[BMT150353493.1.2.3 BBT109321928.1.2.3.0],Conns=[delta wye],kvs=[13.8 0.22],kvas=[45.000000000 45.000000000],Taps=[1,1.000000000],%loadloss=1.522000000,%noloadloss=0.377777000
new transformer.1365765 Phases=1,Windings=3,Buses=[BMT166967052.2 BBT128078554.1.0 BBT128078554.0.2],Conns=[wye wye wye],kvs=[7.967 0.12 0.12],kvas=[5.000000000 5.000000000 5.000000000],Taps=[1,1.000000000,1.000000000],%loadloss=1.900000000,%noloadloss=0.600000000
new transformer.1366052 Phases=1,Windings=3,Buses=[BMT166967009.2 BBT128325815.1.0 BBT128325815.0.2],Conns=[wye wye wye],kvs=[7.967 0.12 0.12],kvas=[5.000000000 5.000000000 5.000000000],Taps=[1,1.000000000,1.000000000],%loadloss=1.900000000,%noloadloss=0.600000000
new transformer.1366059 Phases=1,Windings=3,Buses=[BMT166967011.2 BBT128327775.1.0 BBT128327775.0.2],Conns=[wye wye wye],kvs=[7.967 0.12 0.12],kvas=[5.000000000 5.000000000 5.000000000],Taps=[1,1.000000000,1.000000000],%loadloss=1.900000000,%noloadloss=0.600000000
new transformer.1380346 Phases=1,Windings=3,Buses=[BMT164372864.3 BBT137016616.1.0 BBT137016616.0.2],Conns=[wye wye wye],kvs=[7.967 0.12 0.12],kvas=[10.000000000 10.000000000 10.000000000],Taps=[1,1.000000000,1.000000000],%loadloss=1.800000000,%noloadloss=0.450000000
new transformer.1380353 Phases=1,Windings=3,Buses=[BMT164372865.3 BBT137017820.1.0 BBT137017820.0.2],Conns=[wye wye wye],kvs=[7.967 0.12 0.12],kvas=[10.000000000 10.000000000 10.000000000],Taps=[1,1.000000000,1.000000000],%loadloss=1.800000000,%noloadloss=0.450000000
new transformer.1382285 Phases=1,Windings=3,Buses=[BMT171110655.3 BBT137538697.1.0 BBT137538697.0.2],Conns=[wye wye wye],kvs=[7.967 0.12 0.12],kvas=[10.000000000 10.000000000 10.000000000],Taps=[1,1.000000000,1.000000000],%loadloss=1.800000000,%noloadloss=0.450000000
new transformer.1382880 Phases=1,Windings=3,Buses=[BMT168608127.1 BBT137706788.1.0 BBT137706788.0.2],Conns=[wye wye wye],kvs=[7.967 0.12 0.12],kvas=[15.000000000 15.000000000 15.000000000],Taps=[1,1.000000000,1.000000000],%loadloss=1.600000000,%noloadloss=0.400000000
new transformer.1394741 Phases=1,Windings=3,Buses=[BMT169650379.1 BBT149146901.1.0 BBT149146901.0.2],Conns=[wye wye wye],kvs=[7.967 0.12 0.12],kvas=[5.000000000 5.000000000 5.000000000],Taps=[1,1.000000000,1.000000000],%loadloss=1.900000000,%noloadloss=0.600000000
new transformer.1394743 Phases=1,Windings=3,Buses=[BMT169650378.1 BBT149147248.1.0 BBT149147248.0.2],Conns=[wye wye wye],kvs=[7.967 0.12 0.12],kvas=[5.000000000 5.000000000 5.000000000],Taps=[1,1.000000000,1.000000000],%loadloss=1.900000000,%noloadloss=0.600000000
new transformer.1394745 Phases=1,Windings=3,Buses=[BMT149149836.1 BBT149147447.1.0 BBT149147447.0.2],Conns=[wye wye wye],kvs=[7.967 0.12 0.12],kvas=[5.000000000 5.000000000 5.000000000],Taps=[1,1.000000000,1.000000000],%loadloss=1.900000000,%noloadloss=0.600000000
new transformer.1394751 Phases=1,Windings=3,Buses=[BMT149149838.1 BBT149149445.1.0 BBT149149445.0.2],Conns=[wye wye wye],kvs=[7.967 0.12 0.12],kvas=[5.000000000 5.000000000 5.000000000],Taps=[1,1.000000000,1.000000000],%loadloss=1.900000000,%noloadloss=0.600000000
new transformer.1394754 Phases=1,Windings=3,Buses=[BMT149149839.1 BBT149149857.1.0 BBT149149857.0.2],Conns=[wye wye wye],kvs=[7.967 0.12 0.12],kvas=[10.000000000 10.000000000 10.000000000],Taps=[1,1.000000000,1.000000000],%loadloss=1.800000000,%noloadloss=0.450000000
new transformer.1410063 Phases=1,Windings=3,Buses=[BMT168011175.2 BBT152843078.1.0 BBT152843078.0.2],Conns=[wye wye wye],kvs=[7.967 0.12 0.12],kvas=[25.000000000 25.000000000 25.000000000],Taps=[1,1.000000000,1.000000000],%loadloss=1.420000000,%noloadloss=0.320000000
new transformer.1413647 Phases=1,Windings=3,Buses=[BMT162975174.1 BBT153555688.1.0 BBT153555688.0.2],Conns=[wye wye wye],kvs=[7.967 0.12 0.12],kvas=[10.000000000 10.000000000 10.000000000],Taps=[1,1.000000000,1.000000000],%loadloss=1.800000000,%noloadloss=0.450000000
new transformer.1416881 Phases=1,Windings=3,Buses=[BMT164881167.1 BBT154373276.1.0 BBT154373276.0.2],Conns=[wye wye wye],kvs=[7.967 0.12 0.12],kvas=[10.000000000 10.000000000 10.000000000],Taps=[1,1.000000000,1.000000000],%loadloss=1.800000000,%noloadloss=0.450000000
new transformer.1430856 Phases=1,Windings=3,Buses=[BMT157407662.3 BBT157396550.1.0 BBT157396550.0.2],Conns=[wye wye wye],kvs=[7.967 0.12 0.12],kvas=[10.000000000 10.000000000 10.000000000],Taps=[1,1.000000000,1.000000000],%loadloss=1.800000000,%noloadloss=0.450000000
new transformer.1431139 Phases=3,Windings=2,Buses=[BMT157466632.1.2.3 BBT157466588.1.2.3.0],Conns=[delta wye],kvs=[13.8 0.22],kvas=[75.000000000 75.000000000],Taps=[1,1.000000000],%loadloss=1.340000000,%noloadloss=0.340000000
new transformer.1208328 Phases=3,Windings=2,Buses=[BMT170471165.1.2.3 BBT45280090.1.2.3.0],Conns=[delta wye],kvs=[13.8 0.22],kvas=[45.000000000 45.000000000],Taps=[1,1.000000000],%loadloss=1.522000000,%noloadloss=0.377777000
new transformer.1208335 Phases=1,Windings=3,Buses=[BMT170471166.1 BBT45280160.1.0 BBT45280160.0.2],Conns=[wye wye wye],kvs=[7.967 0.12 0.12],kvas=[10.000000000 10.000000000 10.000000000],Taps=[1,1.000000000,1.000000000],%loadloss=1.800000000,%noloadloss=0.450000000
new transformer.1348748 Phases=1,Windings=3,Buses=[BMT163267208.3 BBT114182728.1.0 BBT114182728.0.2],Conns=[wye wye wye],kvs=[7.967 0.12 0.12],kvas=[5.000000000 5.000000000 5.000000000],Taps=[1,1.000000000,1.000000000],%loadloss=1.900000000,%noloadloss=0.600000000
new transformer.1350029 Phases=3,Windings=2,Buses=[BMT150353118.1.2.3 BBT114973448.1.2.3.0],Conns=[delta wye],kvs=[13.8 0.22],kvas=[45.000000000 45.000000000],Taps=[1,1.000000000],%loadloss=1.522000000,%noloadloss=0.377777000
new transformer.1370483 Phases=1,Windings=3,Buses=[BMT150353487.3 BBT131490263.1.0 BBT131490263.0.2],Conns=[wye wye wye],kvs=[7.967 0.12 0.12],kvas=[5.000000000 5.000000000 5.000000000],Taps=[1,1.000000000,1.000000000],%loadloss=1.900000000,%noloadloss=0.600000000
new transformer.1372828 Phases=1,Windings=3,Buses=[BMT164295199.1 BBT133291307.1.0 BBT133291307.0.2],Conns=[wye wye wye],kvs=[7.967 0.12 0.12],kvas=[5.000000000 5.000000000 5.000000000],Taps=[1,1.000000000,1.000000000],%loadloss=1.900000000,%noloadloss=0.600000000
new transformer.1372835 Phases=1,Windings=3,Buses=[BMT164295200.1 BBT133293484.1.0 BBT133293484.0.2],Conns=[wye wye wye],kvs=[7.967 0.12 0.12],kvas=[5.000000000 5.000000000 5.000000000],Taps=[1,1.000000000,1.000000000],%loadloss=1.900000000,%noloadloss=0.600000000
new transformer.1384861 Phases=3,Windings=2,Buses=[BMT168011174.1.2.3 BBT138288677.1.2.3.0],Conns=[delta wye],kvs=[13.8 0.22],kvas=[75.000000000 75.000000000],Taps=[1,1.000000000],%loadloss=1.340000000,%noloadloss=0.340000000
new transformer.1386135 Phases=3,Windings=2,Buses=[BMT162715304.1.2.3 BBT138649835.1.2.3.0],Conns=[delta wye],kvs=[13.8 0.22],kvas=[45.000000000 45.000000000],Taps=[1,1.000000000],%loadloss=1.522000000,%noloadloss=0.377777000
new transformer.1392591 Phases=1,Windings=3,Buses=[BMT150353217.3 BBT148642983.1.0 BBT148642983.0.2],Conns=[wye wye wye],kvs=[7.967 0.12 0.12],kvas=[10.000000000 10.000000000 10.000000000],Taps=[1,1.000000000,1.000000000],%loadloss=1.800000000,%noloadloss=0.450000000
new transformer.1395307 Phases=1,Windings=3,Buses=[BMT150353218.3 BBT149275346.1.0 BBT149275346.0.2],Conns=[wye wye wye],kvs=[7.967 0.12 0.12],kvas=[10.000000000 10.000000000 10.000000000],Taps=[1,1.000000000,1.000000000],%loadloss=1.800000000,%noloadloss=0.450000000
new transformer.1395532 Phases=1,Windings=3,Buses=[BMT171110656.3 BBT149319633.1.0 BBT149319633.0.2],Conns=[wye wye wye],kvs=[7.967 0.12 0.12],kvas=[5.000000000 5.000000000 5.000000000],Taps=[1,1.000000000,1.000000000],%loadloss=1.900000000,%noloadloss=0.600000000
new transformer.1395534 Phases=1,Windings=3,Buses=[BMT171110653.3 BBT149320614.1.0 BBT149320614.0.2],Conns=[wye wye wye],kvs=[7.967 0.12 0.12],kvas=[10.000000000 10.000000000 10.000000000],Taps=[1,1.000000000,1.000000000],%loadloss=1.800000000,%noloadloss=0.450000000
new transformer.1395545 Phases=1,Windings=3,Buses=[BMT166967013.2 BBT149323593.1.0 BBT149323593.0.2],Conns=[wye wye wye],kvs=[7.967 0.12 0.12],kvas=[10.000000000 10.000000000 10.000000000],Taps=[1,1.000000000,1.000000000],%loadloss=1.800000000,%noloadloss=0.450000000
new transformer.1395596 Phases=1,Windings=3,Buses=[BMT170176597.2 BBT149334715.1.0 BBT149334715.0.2],Conns=[wye wye wye],kvs=[7.967 0.12 0.12],kvas=[5.000000000 5.000000000 5.000000000],Taps=[1,1.000000000,1.000000000],%loadloss=1.900000000,%noloadloss=0.600000000
new transformer.1401130 Phases=1,Windings=3,Buses=[BMT164881160.1 BBT150712990.1.0 BBT150712990.0.2],Conns=[wye wye wye],kvs=[7.967 0.12 0.12],kvas=[15.000000000 15.000000000 15.000000000],Taps=[1,1.000000000,1.000000000],%loadloss=1.600000000,%noloadloss=0.400000000
new transformer.1401306 Phases=1,Windings=3,Buses=[BMT164881168.1 BBT150761974.1.0 BBT150761974.0.2],Conns=[wye wye wye],kvs=[7.967 0.12 0.12],kvas=[10.000000000 10.000000000 10.000000000],Taps=[1,1.000000000,1.000000000],%loadloss=1.800000000,%noloadloss=0.450000000
new transformer.1411308 Phases=3,Windings=2,Buses=[BMT161665832.1.2.3 BBT153119613.1.2.3.0],Conns=[delta wye],kvs=[13.8 0.22],kvas=[45.000000000 45.000000000],Taps=[1,1.000000000],%loadloss=1.522000000,%noloadloss=0.377777000
new transformer.1411316 Phases=3,Windings=2,Buses=[BMT161666202.1.2.3 BBT153122036.1.2.3.0],Conns=[delta wye],kvs=[13.8 0.22],kvas=[45.000000000 45.000000000],Taps=[1,1.000000000],%loadloss=1.522000000,%noloadloss=0.377777000
new transformer.1411317 Phases=3,Windings=2,Buses=[BMT161666203.1.2.3 BBT153122141.1.2.3.0],Conns=[delta wye],kvs=[13.8 0.22],kvas=[45.000000000 45.000000000],Taps=[1,1.000000000],%loadloss=1.522000000,%noloadloss=0.377777000
new transformer.1411318 Phases=3,Windings=2,Buses=[BMT161665831.1.2.3 BBT153122566.1.2.3.0],Conns=[delta wye],kvs=[13.8 0.22],kvas=[45.000000000 45.000000000],Taps=[1,1.000000000],%loadloss=1.522000000,%noloadloss=0.377777000
new transformer.1411320 Phases=3,Windings=2,Buses=[BMT169129541.1.2.3 BBT153123310.1.2.3.0],Conns=[delta wye],kvs=[13.8 0.22],kvas=[45.000000000 45.000000000],Taps=[1,1.000000000],%loadloss=1.522000000,%noloadloss=0.377777000
new transformer.1411324 Phases=3,Windings=2,Buses=[BMT169129542.1.2.3 BBT153124038.1.2.3.0],Conns=[delta wye],kvs=[13.8 0.22],kvas=[75.000000000 75.000000000],Taps=[1,1.000000000],%loadloss=1.340000000,%noloadloss=0.340000000
new transformer.1434226 Phases=1,Windings=3,Buses=[BMT170108247.3 BBT158040564.1.0 BBT158040564.0.2],Conns=[wye wye wye],kvs=[7.967 0.12 0.12],kvas=[15.000000000 15.000000000 15.000000000],Taps=[1,1.000000000,1.000000000],%loadloss=1.600000000,%noloadloss=0.400000000
new transformer.1445430 Phases=1,Windings=3,Buses=[BMT160446340.1 BBT160446344.1.0 BBT160446344.0.2],Conns=[wye wye wye],kvs=[7.967 0.12 0.12],kvas=[10.000000000 10.000000000 10.000000000],Taps=[1,1.000000000,1.000000000],%loadloss=1.800000000,%noloadloss=0.450000000
new transformer.1445610 Phases=1,Windings=3,Buses=[BMT166960710.3 BBT160571911.1.0 BBT160571911.0.2],Conns=[wye wye wye],kvs=[7.967 0.12 0.12],kvas=[10.000000000 10.000000000 10.000000000],Taps=[1,1.000000000,1.000000000],%loadloss=1.800000000,%noloadloss=0.450000000
new transformer.1446038 Phases=1,Windings=3,Buses=[BMT160705232.2 BBT160705184.1.0 BBT160705184.0.2],Conns=[wye wye wye],kvs=[7.967 0.12 0.12],kvas=[10.000000000 10.000000000 10.000000000],Taps=[1,1.000000000,1.000000000],%loadloss=1.800000000,%noloadloss=0.450000000
new transformer.1446077 Phases=1,Windings=3,Buses=[BMT166960738.3 BBT160716389.1.0 BBT160716389.0.2],Conns=[wye wye wye],kvs=[7.967 0.12 0.12],kvas=[10.000000000 10.000000000 10.000000000],Taps=[1,1.000000000,1.000000000],%loadloss=1.800000000,%noloadloss=0.450000000
new transformer.1456355 Phases=1,Windings=3,Buses=[BMT168251523.3 BBT163487668.1.0 BBT163487668.0.2],Conns=[wye wye wye],kvs=[7.967 0.12 0.12],kvas=[10.000000000 10.000000000 10.000000000],Taps=[1,1.000000000,1.000000000],%loadloss=1.800000000,%noloadloss=0.450000000
new transformer.1456459 Phases=1,Windings=3,Buses=[BMT166967040.2 BBT163521258.1.0 BBT163521258.0.2],Conns=[wye wye wye],kvs=[7.967 0.12 0.12],kvas=[10.000000000 10.000000000 10.000000000],Taps=[1,1.000000000,1.000000000],%loadloss=1.800000000,%noloadloss=0.450000000
new transformer.131867 Phases=3,Windings=2,Buses=[BMT158538632.1.2.3 BBT1178318.1.2.3.0],Conns=[delta wye],kvs=[13.8 0.22],kvas=[45.000000000 45.000000000],Taps=[1,1.000000000],%loadloss=1.522000000,%noloadloss=0.377777000
new transformer.131874 Phases=1,Windings=3,Buses=[BMT170227514.2 BBT1178521.1.0 BBT1178521.0.2],Conns=[wye wye wye],kvs=[7.967 0.12 0.12],kvas=[15.000000000 15.000000000 15.000000000],Taps=[1,1.000000000,1.000000000],%loadloss=1.600000000,%noloadloss=0.400000000
new transformer.131881 Phases=1,Windings=3,Buses=[BMT150997761.2 BBT1178619.1.0 BBT1178619.0.2],Conns=[wye wye wye],kvs=[7.967 0.12 0.12],kvas=[25.000000000 25.000000000 25.000000000],Taps=[1,1.000000000,1.000000000],%loadloss=1.420000000,%noloadloss=0.320000000
new transformer.131895 Phases=1,Windings=3,Buses=[BMT150997759.2 BBT1178710.1.0 BBT1178710.0.2],Conns=[wye wye wye],kvs=[7.967 0.12 0.12],kvas=[35.000000000 35.000000000 35.000000000],Taps=[1,1.000000000,1.000000000],%loadloss=1.293000000,%noloadloss=0.342857000
new transformer.131902 Phases=1,Windings=3,Buses=[BMT163760112.2 BBT1178787.1.0 BBT1178787.0.2],Conns=[wye wye wye],kvs=[7.967 0.12 0.12],kvas=[10.000000000 10.000000000 10.000000000],Taps=[1,1.000000000,1.000000000],%loadloss=1.800000000,%noloadloss=0.450000000
new transformer.131909 Phases=1,Windings=3,Buses=[BMT164979872.3 BBT1178801.1.0 BBT1178801.0.2],Conns=[wye wye wye],kvs=[7.967 0.12 0.12],kvas=[35.000000000 35.000000000 35.000000000],Taps=[1,1.000000000,1.000000000],%loadloss=1.293000000,%noloadloss=0.342857000
new transformer.131916 Phases=1,Windings=3,Buses=[BMT150997755.2 BBT1178878.1.0 BBT1178878.0.2],Conns=[wye wye wye],kvs=[7.967 0.12 0.12],kvas=[35.000000000 35.000000000 35.000000000],Taps=[1,1.000000000,1.000000000],%loadloss=1.293000000,%noloadloss=0.342857000
new transformer.131923 Phases=3,Windings=2,Buses=[BMT158538635.1.2.3 BBT1178948.1.2.3.0],Conns=[delta wye],kvs=[13.8 0.22],kvas=[30.000000000 30.000000000],Taps=[1,1.000000000],%loadloss=1.667000000,%noloadloss=0.433333000
new transformer.131930 Phases=1,Windings=3,Buses=[BMT171152960.2 BBT1179046.1.0 BBT1179046.0.2],Conns=[wye wye wye],kvs=[7.967 0.12 0.12],kvas=[15.000000000 15.000000000 15.000000000],Taps=[1,1.000000000,1.000000000],%loadloss=1.600000000,%noloadloss=0.400000000
new transformer.131937 Phases=1,Windings=3,Buses=[BMT103766903.1 BBT1179088.1.0 BBT1179088.0.2],Conns=[wye wye wye],kvs=[7.967 0.12 0.12],kvas=[15.000000000 15.000000000 15.000000000],Taps=[1,1.000000000,1.000000000],%loadloss=1.600000000,%noloadloss=0.400000000
new transformer.131958 Phases=3,Windings=2,Buses=[BMT152182162.1.2.3 BBT1179235.1.2.3.0],Conns=[delta wye],kvs=[13.8 0.22],kvas=[30.000000000 30.000000000],Taps=[1,1.000000000],%loadloss=1.667000000,%noloadloss=0.433333000
new transformer.131972 Phases=1,Windings=3,Buses=[BMT163712438.2 BBT1179333.1.0 BBT1179333.0.2],Conns=[wye wye wye],kvs=[7.967 0.12 0.12],kvas=[10.000000000 10.000000000 10.000000000],Taps=[1,1.000000000,1.000000000],%loadloss=1.800000000,%noloadloss=0.450000000
new transformer.131979 Phases=1,Windings=3,Buses=[BMT171152955.2 BBT1179347.1.0 BBT1179347.0.2],Conns=[wye wye wye],kvs=[7.967 0.12 0.12],kvas=[35.000000000 35.000000000 35.000000000],Taps=[1,1.000000000,1.000000000],%loadloss=1.293000000,%noloadloss=0.342857000
new transformer.1368103 Phases=1,Windings=3,Buses=[BMT160020566.1 BBT129800015.1.0 BBT129800015.0.2],Conns=[wye wye wye],kvs=[7.967 0.12 0.12],kvas=[35.000000000 35.000000000 35.000000000],Taps=[1,1.000000000,1.000000000],%loadloss=1.293000000,%noloadloss=0.342857000
new transformer.1419257 Phases=1,Windings=3,Buses=[BMT170108227.3 BBT154881782.1.0 BBT154881782.0.2],Conns=[wye wye wye],kvs=[7.967 0.12 0.12],kvas=[10.000000000 10.000000000 10.000000000],Taps=[1,1.000000000,1.000000000],%loadloss=1.800000000,%noloadloss=0.450000000
new transformer.1419396 Phases=1,Windings=3,Buses=[BMT163095152.1 BBT154921866.1.0 BBT154921866.0.2],Conns=[wye wye wye],kvs=[7.967 0.12 0.12],kvas=[10.000000000 10.000000000 10.000000000],Taps=[1,1.000000000,1.000000000],%loadloss=1.800000000,%noloadloss=0.450000000
new transformer.1425598 Phases=1,Windings=3,Buses=[BMT169384040.2 BBT156261867.1.0 BBT156261867.0.2],Conns=[wye wye wye],kvs=[7.967 0.12 0.12],kvas=[15.000000000 15.000000000 15.000000000],Taps=[1,1.000000000,1.000000000],%loadloss=1.600000000,%noloadloss=0.400000000
new transformer.1434730 Phases=1,Windings=3,Buses=[BMT163710193.3 BBT158133661.1.0 BBT158133661.0.2],Conns=[wye wye wye],kvs=[7.967 0.12 0.12],kvas=[10.000000000 10.000000000 10.000000000],Taps=[1,1.000000000,1.000000000],%loadloss=1.800000000,%noloadloss=0.450000000
new transformer.1434941 Phases=1,Windings=3,Buses=[BMT158176557.3 BBT158176558.1.0 BBT158176558.0.2],Conns=[wye wye wye],kvs=[7.967 0.12 0.12],kvas=[15.000000000 15.000000000 15.000000000],Taps=[1,1.000000000,1.000000000],%loadloss=1.600000000,%noloadloss=0.400000000
new transformer.1435177 Phases=1,Windings=3,Buses=[BMT162274306.1 BBT158218534.1.0 BBT158218534.0.2],Conns=[wye wye wye],kvs=[7.967 0.12 0.12],kvas=[10.000000000 10.000000000 10.000000000],Taps=[1,1.000000000,1.000000000],%loadloss=1.800000000,%noloadloss=0.450000000
new transformer.1435185 Phases=1,Windings=3,Buses=[BMT162279214.1 BBT158220360.1.0 BBT158220360.0.2],Conns=[wye wye wye],kvs=[7.967 0.12 0.12],kvas=[10.000000000 10.000000000 10.000000000],Taps=[1,1.000000000,1.000000000],%loadloss=1.800000000,%noloadloss=0.450000000
new transformer.1440797 Phases=1,Windings=3,Buses=[BMT168251542.3 BBT159352274.1.0 BBT159352274.0.2],Conns=[wye wye wye],kvs=[7.967 0.12 0.12],kvas=[10.000000000 10.000000000 10.000000000],Taps=[1,1.000000000,1.000000000],%loadloss=1.800000000,%noloadloss=0.450000000
new transformer.1446289 Phases=1,Windings=3,Buses=[BMT160806977.3 BBT160806937.1.0 BBT160806937.0.2],Conns=[wye wye wye],kvs=[7.967 0.12 0.12],kvas=[10.000000000 10.000000000 10.000000000],Taps=[1,1.000000000,1.000000000],%loadloss=1.800000000,%noloadloss=0.450000000
new transformer.1446493 Phases=1,Windings=3,Buses=[BMT166967076.2 BBT160862638.1.0 BBT160862638.0.2],Conns=[wye wye wye],kvs=[7.967 0.12 0.12],kvas=[10.000000000 10.000000000 10.000000000],Taps=[1,1.000000000,1.000000000],%loadloss=1.800000000,%noloadloss=0.450000000
new transformer.1457134 Phases=1,Windings=3,Buses=[BMT163708662.3 BBT163707652.1.0 BBT163707652.0.2],Conns=[wye wye wye],kvs=[7.967 0.12 0.12],kvas=[10.000000000 10.000000000 10.000000000],Taps=[1,1.000000000,1.000000000],%loadloss=1.800000000,%noloadloss=0.450000000
new transformer.1457168 Phases=1,Windings=3,Buses=[BMT163712443.2 BBT163712303.1.0 BBT163712303.0.2],Conns=[wye wye wye],kvs=[7.967 0.12 0.12],kvas=[10.000000000 10.000000000 10.000000000],Taps=[1,1.000000000,1.000000000],%loadloss=1.800000000,%noloadloss=0.450000000
new transformer.1457241 Phases=1,Windings=3,Buses=[BMT163731201.3 BBT163731214.1.0 BBT163731214.0.2],Conns=[wye wye wye],kvs=[7.967 0.12 0.12],kvas=[10.000000000 10.000000000 10.000000000],Taps=[1,1.000000000,1.000000000],%loadloss=1.800000000,%noloadloss=0.450000000
new transformer.1457373 Phases=1,Windings=3,Buses=[BMT166360150.3 BBT163763127.1.0 BBT163763127.0.2],Conns=[wye wye wye],kvs=[7.967 0.12 0.12],kvas=[10.000000000 10.000000000 10.000000000],Taps=[1,1.000000000,1.000000000],%loadloss=1.800000000,%noloadloss=0.450000000
new transformer.1457389 Phases=1,Windings=3,Buses=[BMT171320544.3 BBT163766365.1.0 BBT163766365.0.2],Conns=[wye wye wye],kvs=[7.967 0.12 0.12],kvas=[10.000000000 10.000000000 10.000000000],Taps=[1,1.000000000,1.000000000],%loadloss=1.800000000,%noloadloss=0.450000000
new transformer.1457513 Phases=1,Windings=3,Buses=[BMT169555570.3 BBT163803263.1.0 BBT163803263.0.2],Conns=[wye wye wye],kvs=[7.967 0.12 0.12],kvas=[10.000000000 10.000000000 10.000000000],Taps=[1,1.000000000,1.000000000],%loadloss=1.800000000,%noloadloss=0.450000000
new transformer.132238 Phases=1,Windings=3,Buses=[BMT164292657.2 BBT1181062.1.0 BBT1181062.0.2],Conns=[wye wye wye],kvs=[7.967 0.12 0.12],kvas=[10.000000000 10.000000000 10.000000000],Taps=[1,1.000000000,1.000000000],%loadloss=1.800000000,%noloadloss=0.450000000
new transformer.132245 Phases=1,Windings=3,Buses=[BMT150354023.2 BBT1181111.1.0 BBT1181111.0.2],Conns=[wye wye wye],kvs=[7.967 0.12 0.12],kvas=[15.000000000 15.000000000 15.000000000],Taps=[1,1.000000000,1.000000000],%loadloss=1.600000000,%noloadloss=0.400000000
new transformer.132252 Phases=3,Windings=2,Buses=[BMT170227516.1.2.3 BBT1181125.1.2.3.0],Conns=[delta wye],kvs=[13.8 0.22],kvas=[15.000000000 15.000000000],Taps=[1,1.000000000],%loadloss=1.967000000,%noloadloss=0.500000000
new transformer.132259 Phases=1,Windings=3,Buses=[BMT150353192.3 BBT1181223.1.0 BBT1181223.0.2],Conns=[wye wye wye],kvs=[7.967 0.12 0.12],kvas=[5.000000000 5.000000000 5.000000000],Taps=[1,1.000000000,1.000000000],%loadloss=1.900000000,%noloadloss=0.600000000
new transformer.132266 Phases=1,Windings=3,Buses=[BMT150997762.2 BBT1181237.1.0 BBT1181237.0.2],Conns=[wye wye wye],kvs=[7.967 0.12 0.12],kvas=[35.000000000 35.000000000 35.000000000],Taps=[1,1.000000000,1.000000000],%loadloss=1.293000000,%noloadloss=0.342857000
new transformer.132280 Phases=3,Windings=2,Buses=[BMT150353170.1.2.3 BBT1181328.1.2.3.0],Conns=[delta wye],kvs=[13.8 0.22],kvas=[45.000000000 45.000000000],Taps=[1,1.000000000],%loadloss=1.522000000,%noloadloss=0.377777000
new transformer.132287 Phases=1,Windings=3,Buses=[BMT150353135.3 BBT1181342.1.0 BBT1181342.0.2],Conns=[wye wye wye],kvs=[7.967 0.12 0.12],kvas=[10.000000000 10.000000000 10.000000000],Taps=[1,1.000000000,1.000000000],%loadloss=1.800000000,%noloadloss=0.450000000
new transformer.132294 Phases=3,Windings=2,Buses=[BMT150353169.1.2.3 BBT1181356.1.2.3.0],Conns=[delta wye],kvs=[13.8 0.22],kvas=[45.000000000 45.000000000],Taps=[1,1.000000000],%loadloss=1.522000000,%noloadloss=0.377777000
new transformer.1379121 Phases=1,Windings=3,Buses=[BMT156193067.1 BBT136753367.1.0 BBT136753367.0.2],Conns=[wye wye wye],kvs=[7.967 0.12 0.12],kvas=[5.000000000 5.000000000 5.000000000],Taps=[1,1.000000000,1.000000000],%loadloss=1.900000000,%noloadloss=0.600000000
new transformer.1390802 Phases=1,Windings=3,Buses=[BMT163710187.3 BBT148225976.1.0 BBT148225976.0.2],Conns=[wye wye wye],kvs=[7.967 0.12 0.12],kvas=[5.000000000 5.000000000 5.000000000],Taps=[1,1.000000000,1.000000000],%loadloss=1.900000000,%noloadloss=0.600000000
new transformer.1393964 Phases=1,Windings=3,Buses=[BMT166960754.3 BBT148957111.1.0 BBT148957111.0.2],Conns=[wye wye wye],kvs=[7.967 0.12 0.12],kvas=[5.000000000 5.000000000 5.000000000],Taps=[1,1.000000000,1.000000000],%loadloss=1.900000000,%noloadloss=0.600000000
new transformer.1393967 Phases=1,Windings=3,Buses=[BMT166960755.3 BBT148957869.1.0 BBT148957869.0.2],Conns=[wye wye wye],kvs=[7.967 0.12 0.12],kvas=[5.000000000 5.000000000 5.000000000],Taps=[1,1.000000000,1.000000000],%loadloss=1.900000000,%noloadloss=0.600000000
new transformer.1394165 Phases=1,Windings=3,Buses=[BMT168351118.2 BBT149011980.1.0 BBT149011980.0.2],Conns=[wye wye wye],kvs=[7.967 0.12 0.12],kvas=[10.000000000 10.000000000 10.000000000],Taps=[1,1.000000000,1.000000000],%loadloss=1.800000000,%noloadloss=0.450000000
new transformer.1400863 Phases=1,Windings=3,Buses=[BMT169561310.2 BBT150636489.1.0 BBT150636489.0.2],Conns=[wye wye wye],kvs=[7.967 0.12 0.12],kvas=[10.000000000 10.000000000 10.000000000],Taps=[1,1.000000000,1.000000000],%loadloss=1.800000000,%noloadloss=0.450000000
new transformer.1403611 Phases=1,Windings=3,Buses=[BMT163291393.1 BBT151324869.1.0 BBT151324869.0.2],Conns=[wye wye wye],kvs=[7.967 0.12 0.12],kvas=[10.000000000 10.000000000 10.000000000],Taps=[1,1.000000000,1.000000000],%loadloss=1.800000000,%noloadloss=0.450000000
new transformer.1412738 Phases=1,Windings=3,Buses=[BMT171110648.3 BBT153364973.1.0 BBT153364973.0.2],Conns=[wye wye wye],kvs=[7.967 0.12 0.12],kvas=[10.000000000 10.000000000 10.000000000],Taps=[1,1.000000000,1.000000000],%loadloss=1.800000000,%noloadloss=0.450000000
new transformer.1433153 Phases=1,Windings=3,Buses=[BMT170101226.2 BBT157832651.1.0 BBT157832651.0.2],Conns=[wye wye wye],kvs=[7.967 0.12 0.12],kvas=[10.000000000 10.000000000 10.000000000],Taps=[1,1.000000000,1.000000000],%loadloss=1.800000000,%noloadloss=0.450000000
new transformer.1433212 Phases=1,Windings=3,Buses=[BMT170108241.3 BBT157848073.1.0 BBT157848073.0.2],Conns=[wye wye wye],kvs=[7.967 0.12 0.12],kvas=[10.000000000 10.000000000 10.000000000],Taps=[1,1.000000000,1.000000000],%loadloss=1.800000000,%noloadloss=0.450000000
new transformer.1433234 Phases=1,Windings=3,Buses=[BMT164079452.3 BBT157857738.1.0 BBT157857738.0.2],Conns=[wye wye wye],kvs=[7.967 0.12 0.12],kvas=[10.000000000 10.000000000 10.000000000],Taps=[1,1.000000000,1.000000000],%loadloss=1.800000000,%noloadloss=0.450000000
new transformer.1433282 Phases=1,Windings=3,Buses=[BMT166960753.3 BBT157864850.1.0 BBT157864850.0.2],Conns=[wye wye wye],kvs=[7.967 0.12 0.12],kvas=[10.000000000 10.000000000 10.000000000],Taps=[1,1.000000000,1.000000000],%loadloss=1.800000000,%noloadloss=0.450000000
new transformer.1433476 Phases=1,Windings=3,Buses=[BMT170939227.3 BBT157899789.1.0 BBT157899789.0.2],Conns=[wye wye wye],kvs=[7.967 0.12 0.12],kvas=[10.000000000 10.000000000 10.000000000],Taps=[1,1.000000000,1.000000000],%loadloss=1.800000000,%noloadloss=0.450000000
new transformer.1445337 Phases=1,Windings=3,Buses=[BMT162017699.1 BBT160403454.1.0 BBT160403454.0.2],Conns=[wye wye wye],kvs=[7.967 0.12 0.12],kvas=[10.000000000 10.000000000 10.000000000],Taps=[1,1.000000000,1.000000000],%loadloss=1.800000000,%noloadloss=0.450000000
new transformer.1449832 Phases=1,Windings=3,Buses=[BMT171320539.3 BBT161605846.1.0 BBT161605846.0.2],Conns=[wye wye wye],kvs=[7.967 0.12 0.12],kvas=[10.000000000 10.000000000 10.000000000],Taps=[1,1.000000000,1.000000000],%loadloss=1.800000000,%noloadloss=0.450000000
new transformer.1450086 Phases=1,Windings=3,Buses=[BMT163225869.1 BBT161675269.1.0 BBT161675269.0.2],Conns=[wye wye wye],kvs=[7.967 0.12 0.12],kvas=[10.000000000 10.000000000 10.000000000],Taps=[1,1.000000000,1.000000000],%loadloss=1.800000000,%noloadloss=0.450000000
new transformer.1455621 Phases=1,Windings=3,Buses=[BMT163267205.3 BBT163267210.1.0 BBT163267210.0.2],Conns=[wye wye wye],kvs=[7.967 0.12 0.12],kvas=[10.000000000 10.000000000 10.000000000],Taps=[1,1.000000000,1.000000000],%loadloss=1.800000000,%noloadloss=0.450000000
new transformer.1456094 Phases=1,Windings=3,Buses=[BMT169561307.2 BBT163421293.1.0 BBT163421293.0.2],Conns=[wye wye wye],kvs=[7.967 0.12 0.12],kvas=[10.000000000 10.000000000 10.000000000],Taps=[1,1.000000000,1.000000000],%loadloss=1.800000000,%noloadloss=0.450000000
...
! erro conv.
! new transformer.85919 Phases=3,Windings=2,Buses=[BMT172818507.1.2.3 BBT856528.1.2.3.0],Conns=[delta wye],kvs=[13.8 0.22],kvas=[30.000000000 30.000000000],Taps=[1,1.000000000],%loadloss=1.667000000,%noloadloss=0.433333000
new transformer.85926 Phases=3,Windings=2,Buses=[BMT170161908.1.2.3 BBT856710.1.2.3.0],Conns=[delta wye],kvs=[13.8 0.22],kvas=[30.000000000 30.000000000],Taps=[1,1.000000000],%loadloss=1.667000000,%noloadloss=0.433333000
new transformer.85933 Phases=1,Windings=3,Buses=[BMT148873657.1 BBT856780.1.0 BBT856780.0.2],Conns=[wye wye wye],kvs=[7.967 0.12 0.12],kvas=[35.000000000 35.000000000 35.000000000],Taps=[1,1.000000000,1.000000000],%loadloss=1.293000000,%noloadloss=0.342857000
new transformer.85940 Phases=1,Windings=3,Buses=[BMT168064211.2 BBT856892.1.0 BBT856892.0.2],Conns=[wye wye wye],kvs=[7.967 0.12 0.12],kvas=[35.000000000 35.000000000 35.000000000],Taps=[1,1.000000000,1.000000000],%loadloss=1.293000000,%noloadloss=0.342857000
new transformer.85947 Phases=1,Windings=3,Buses=[BMT172453571.2 BBT856962.1.0 BBT856962.0.2],Conns=[wye wye wye],kvs=[7.967 0.12 0.12],kvas=[35.000000000 35.000000000 35.000000000],Taps=[1,1.000000000,1.000000000],%loadloss=1.293000000,%noloadloss=0.342857000
new transformer.85954 Phases=3,Windings=2,Buses=[BMT170816532.1.2.3 BBT857067.1.2.3.0],Conns=[delta wye],kvs=[13.8 0.22],kvas=[75.000000000 75.000000000],Taps=[1,1.000000000],%loadloss=1.340000000,%noloadloss=0.340000000
new transformer.85961 Phases=3,Windings=2,Buses=[BMT171761023.1.2.3 BBT857200.1.2.3.0],Conns=[delta wye],kvs=[13.8 0.22],kvas=[30.000000000 30.000000000],Taps=[1,1.000000000],%loadloss=1.667000000,%noloadloss=0.433333000
new transformer.85968 Phases=1,Windings=3,Buses=[BMT172453574.2 BBT857270.1.0 BBT857270.0.2],Conns=[wye wye wye],kvs=[7.967 0.12 0.12],kvas=[35.000000000 35.000000000 35.000000000],Taps=[1,1.000000000,1.000000000],%loadloss=1.293000000,%noloadloss=0.342857000
new transformer.85975 Phases=1,Windings=3,Buses=[BMT168064215.2 BBT857319.1.0 BBT857319.0.2],Conns=[wye wye wye],kvs=[7.967 0.12 0.12],kvas=[25.000000000 25.000000000 25.000000000],Taps=[1,1.000000000,1.000000000],%loadloss=1.420000000,%noloadloss=0.320000000
new transformer.87452 Phases=1,Windings=3,Buses=[BMT172688271.1 BBT862023.1.0 BBT862023.0.2],Conns=[wye wye wye],kvs=[7.967 0.12 0.12],kvas=[10.000000000 10.000000000 10.000000000],Taps=[1,1.000000000,1.000000000],%loadloss=1.800000000,%noloadloss=0.450000000
new transformer.87459 Phases=1,Windings=3,Buses=[BMT168351103.2 BBT862037.1.0 BBT862037.0.2],Conns=[wye wye wye],kvs=[7.967 0.12 0.12],kvas=[25.000000000 25.000000000 25.000000000],Taps=[1,1.000000000,1.000000000],%loadloss=1.420000000,%noloadloss=0.320000000
new transformer.87466 Phases=1,Windings=3,Buses=[BMT168351116.2 BBT862051.1.0 BBT862051.0.2],Conns=[wye wye wye],kvs=[7.967 0.12 0.12],kvas=[10.000000000 10.000000000 10.000000000],Taps=[1,1.000000000,1.000000000],%loadloss=1.800000000,%noloadloss=0.450000000
new transformer.87473 Phases=1,Windings=3,Buses=[BMT103801959.3 BBT862065.1.0 BBT862065.0.2],Conns=[wye wye wye],kvs=[7.967 0.12 0.12],kvas=[10.000000000 10.000000000 10.000000000],Taps=[1,1.000000000,1.000000000],%loadloss=1.800000000,%noloadloss=0.450000000
new transformer.87480 Phases=1,Windings=3,Buses=[BMT168708498.2 BBT862079.1.0 BBT862079.0.2],Conns=[wye wye wye],kvs=[7.967 0.12 0.12],kvas=[15.000000000 15.000000000 15.000000000],Taps=[1,1.000000000,1.000000000],%loadloss=1.600000000,%noloadloss=0.400000000
new transformer.87487 Phases=1,Windings=3,Buses=[BMT103801840.1 BBT862093.1.0 BBT862093.0.2],Conns=[wye wye wye],kvs=[7.967 0.12 0.12],kvas=[5.000000000 5.000000000 5.000000000],Taps=[1,1.000000000,1.000000000],%loadloss=1.900000000,%noloadloss=0.600000000
new transformer.87494 Phases=1,Windings=3,Buses=[BMT168350978.2 BBT862107.1.0 BBT862107.0.2],Conns=[wye wye wye],kvs=[7.967 0.12 0.12],kvas=[10.000000000 10.000000000 10.000000000],Taps=[1,1.000000000,1.000000000],%loadloss=1.800000000,%noloadloss=0.450000000
new transformer.87501 Phases=1,Windings=3,Buses=[BMT163806545.2 BBT862121.1.0 BBT862121.0.2],Conns=[wye wye wye],kvs=[7.967 0.12 0.12],kvas=[5.000000000 5.000000000 5.000000000],Taps=[1,1.000000000,1.000000000],%loadloss=1.900000000,%noloadloss=0.600000000
new transformer.87508 Phases=1,Windings=3,Buses=[BMT103801973.3 BBT862135.1.0 BBT862135.0.2],Conns=[wye wye wye],kvs=[7.967 0.12 0.12],kvas=[5.000000000 5.000000000 5.000000000],Taps=[1,1.000000000,1.000000000],%loadloss=1.900000000,%noloadloss=0.600000000
new transformer.87515 Phases=1,Windings=3,Buses=[BMT168708446.2 BBT862149.1.0 BBT862149.0.2],Conns=[wye wye wye],kvs=[7.967 0.12 0.12],kvas=[10.000000000 10.000000000 10.000000000],Taps=[1,1.000000000,1.000000000],%loadloss=1.800000000,%noloadloss=0.450000000
new transformer.87522 Phases=1,Windings=3,Buses=[BMT163806564.2 BBT862163.1.0 BBT862163.0.2],Conns=[wye wye wye],kvs=[7.967 0.12 0.12],kvas=[25.000000000 25.000000000 25.000000000],Taps=[1,1.000000000,1.000000000],%loadloss=1.420000000,%noloadloss=0.320000000
new transformer.87529 Phases=1,Windings=3,Buses=[BMT167819116.3 BBT862177.1.0 BBT862177.0.2],Conns=[wye wye wye],kvs=[7.967 0.12 0.12],kvas=[15.000000000 15.000000000 15.000000000],Taps=[1,1.000000000,1.000000000],%loadloss=1.600000000,%noloadloss=0.400000000
new transformer.87536 Phases=1,Windings=3,Buses=[BMT168708499.2 BBT862191.1.0 BBT862191.0.2],Conns=[wye wye wye],kvs=[7.967 0.12 0.12],kvas=[5.000000000 5.000000000 5.000000000],Taps=[1,1.000000000,1.000000000],%loadloss=1.900000000,%noloadloss=0.600000000
new transformer.87543 Phases=1,Windings=3,Buses=[BMT163806563.2 BBT862205.1.0 BBT862205.0.2],Conns=[wye wye wye],kvs=[7.967 0.12 0.12],kvas=[35.000000000 35.000000000 35.000000000],Taps=[1,1.000000000,1.000000000],%loadloss=1.293000000,%noloadloss=0.342857000
new transformer.86675 Phases=1,Windings=3,Buses=[BMT150353561.2 BBT859902.1.0 BBT859902.0.2],Conns=[wye wye wye],kvs=[7.967 0.12 0.12],kvas=[10.000000000 10.000000000 10.000000000],Taps=[1,1.000000000,1.000000000],%loadloss=1.800000000,%noloadloss=0.450000000
new transformer.86682 Phases=1,Windings=3,Buses=[BMT103803107.3 BBT859930.1.0 BBT859930.0.2],Conns=[wye wye wye],kvs=[7.967 0.12 0.12],kvas=[5.000000000 5.000000000 5.000000000],Taps=[1,1.000000000,1.000000000],%loadloss=1.900000000,%noloadloss=0.600000000
new transformer.86696 Phases=1,Windings=3,Buses=[BMT166986167.3 BBT859958.1.0 BBT859958.0.2],Conns=[wye wye wye],kvs=[7.967 0.12 0.12],kvas=[10.000000000 10.000000000 10.000000000],Taps=[1,1.000000000,1.000000000],%loadloss=1.800000000,%noloadloss=0.450000000
new transformer.86703 Phases=1,Windings=3,Buses=[BMT166986168.3 BBT859972.1.0 BBT859972.0.2],Conns=[wye wye wye],kvs=[7.967 0.12 0.12],kvas=[15.000000000 15.000000000 15.000000000],Taps=[1,1.000000000,1.000000000],%loadloss=1.600000000,%noloadloss=0.400000000
new transformer.86710 Phases=1,Windings=3,Buses=[BMT168708475.2 BBT859986.1.0 BBT859986.0.2],Conns=[wye wye wye],kvs=[7.967 0.12 0.12],kvas=[10.000000000 10.000000000 10.000000000],Taps=[1,1.000000000,1.000000000],%loadloss=1.800000000,%noloadloss=0.450000000
new transformer.86717 Phases=1,Windings=3,Buses=[BMT163708670.3 BBT860000.1.0 BBT860000.0.2],Conns=[wye wye wye],kvs=[7.967 0.12 0.12],kvas=[5.000000000 5.000000000 5.000000000],Taps=[1,1.000000000,1.000000000],%loadloss=1.900000000,%noloadloss=0.600000000
new transformer.86724 Phases=1,Windings=3,Buses=[BMT170631590.3 BBT860014.1.0 BBT860014.0.2],Conns=[wye wye wye],kvs=[7.967 0.12 0.12],kvas=[25.000000000 25.000000000 25.000000000],Taps=[1,1.000000000,1.000000000],%loadloss=1.420000000,%noloadloss=0.320000000
new transformer.86731 Phases=1,Windings=3,Buses=[BMT163806547.2 BBT860028.1.0 BBT860028.0.2],Conns=[wye wye wye],kvs=[7.967 0.12 0.12],kvas=[5.000000000 5.000000000 5.000000000],Taps=[1,1.000000000,1.000000000],%loadloss=1.900000000,%noloadloss=0.600000000
new transformer.86738 Phases=1,Windings=3,Buses=[BMT167819121.3 BBT860042.1.0 BBT860042.0.2],Conns=[wye wye wye],kvs=[7.967 0.12 0.12],kvas=[10.000000000 10.000000000 10.000000000],Taps=[1,1.000000000,1.000000000],%loadloss=1.800000000,%noloadloss=0.450000000
new transformer.86745 Phases=1,Windings=3,Buses=[BMT165138612.3 BBT860049.1.0 BBT860049.0.2],Conns=[wye wye wye],kvs=[7.967 0.12 0.12],kvas=[10.000000000 10.000000000 10.000000000],Taps=[1,1.000000000,1.000000000],%loadloss=1.800000000,%noloadloss=0.450000000
...