2024_89_CemigReconfigurationCases/1_3_EstudoCasos/CETU04/CETU04Ramais.dss
new line.RML10005318 bus1=BBT3608956.1.2.0,bus2=RML1060005318.1.2.0,Phases=2,Linecode=CABBTG05_4_2,Length=0.017,Units=km
new line.RML10005997 bus1=BBT4502646.1.0,bus2=RML1060005997.1.0,Phases=1,Linecode=CABBTG02_4_1,Length=0.017,Units=km
new line.RML10006011 bus1=BBT4502604.1.0,bus2=RML1060006011.1.0,Phases=1,Linecode=CABBTG02_4_1,Length=0.017,Units=km
new line.RML10006375 bus1=BBT4502639.1.0,bus2=RML1060006375.1.0,Phases=1,Linecode=CABBTG02_4_1,Length=0.017,Units=km
new line.RML10006900 bus1=BBT4502919.1.2.0,bus2=RML1060006900.1.2.0,Phases=2,Linecode=CABBTG05_4_2,Length=0.017,Units=km
new line.RML10027319 bus1=BBT5152666.1.2.3.0,bus2=RML1060027319.1.2.3.0,Phases=3,Linecode=CABBTG06_4_3,Length=0.017,Units=km
new line.RML10027879 bus1=BBT4433136.1.0,bus2=RML1060027879.1.0,Phases=1,Linecode=CABBTG02_4_1,Length=0.017,Units=km
new line.RML10028943 bus1=BBT93687568.1.0,bus2=RML1060028943.1.0,Phases=1,Linecode=CABBTG02_4_1,Length=0.017,Units=km
new line.RML10031852 bus1=BBT3780358.1.2.0,bus2=RML1060031852.1.2.0,Phases=2,Linecode=CABBTG13_4_2,Length=0.017,Units=km
new line.RML10032205 bus1=BBT863388.1.0,bus2=RML1060032205.1.0,Phases=1,Linecode=CABBTG02_4_1,Length=0.017,Units=km
new line.RML10032211 bus1=BBT863388.1.0,bus2=RML1060032211.1.0,Phases=1,Linecode=CABBTG02_4_1,Length=0.017,Units=km
new line.RML10032927 bus1=BBT4767337.1.0,bus2=RML1060032927.1.0,Phases=1,Linecode=CABBTG02_4_1,Length=0.017,Units=km
new line.RML10033137 bus1=BBT857984.1.2.0,bus2=RML1060033137.1.2.0,Phases=2,Linecode=CABBTG04_4_2,Length=0.017,Units=km
new line.RML10100422 bus1=BBT4158869.1.2.0,bus2=RML1060100422.1.2.0,Phases=2,Linecode=CABBTG05_4_2,Length=0.017,Units=km
new line.RML10100424 bus1=BBT4445393.1.2.0,bus2=RML1060100424.1.2.0,Phases=2,Linecode=CABBTG05_4_2,Length=0.013000000,Units=km
new line.RML10101234 bus1=BBT4502919.1.2.0,bus2=RML1060101234.1.2.0,Phases=2,Linecode=CABBTG05_4_2,Length=0.017,Units=km
new line.RML10101235 bus1=BBT4502625.1.2.0,bus2=RML1060101235.1.2.0,Phases=2,Linecode=CABBTG05_4_2,Length=0.017,Units=km
new line.RML10104872 bus1=BBT840974.1.2.0,bus2=RML1060104872.1.2.0,Phases=2,Linecode=CABBTG05_4_2,Length=0.017,Units=km
new line.RML10104875 bus1=BBT842031.1.2.0,bus2=RML1060104875.1.2.0,Phases=2,Linecode=CABBTG05_4_2,Length=0.017,Units=km
new line.RML10171990 bus1=BBT4925481.1.2.3.0,bus2=RML1060171990.1.2.3.0,Phases=3,Linecode=CABBTG07_4_3,Length=0.017,Units=km
new line.RML10172398 bus1=BBT3757083.1.2.0,bus2=RML1060172398.1.2.0,Phases=2,Linecode=CABBTG05_4_2,Length=0.017,Units=km
new line.RML10172485 bus1=BBT860595.1.2.0,bus2=RML1060172485.1.2.0,Phases=2,Linecode=CABBTG05_4_2,Length=0.017,Units=km
new line.RML10172966 bus1=BBT4397884.1.2.0,bus2=RML1060172966.1.2.0,Phases=2,Linecode=CABBTG05_4_2,Length=0.017,Units=km
new line.RML10174472 bus1=BBT4410974.1.2.0,bus2=RML1060174472.1.2.0,Phases=2,Linecode=CABBTG05_4_2,Length=0.017,Units=km
new line.RML10176068 bus1=BBT4420571.1.2.0,bus2=RML1060176068.1.2.0,Phases=2,Linecode=CABBTG05_4_2,Length=0.017,Units=km
new line.RML10176549 bus1=BBT4502639.1.2.0,bus2=RML1060176549.1.2.0,Phases=2,Linecode=CABBTG05_4_2,Length=0.017,Units=km
new line.RML10176574 bus1=BBT17651258.1.2.0,bus2=RML1060176574.1.2.0,Phases=2,Linecode=CABBTG05_4_2,Length=0.017,Units=km
new line.RML10176663 bus1=BBT25949737.1.2.0,bus2=RML1060176663.1.2.0,Phases=2,Linecode=CABBTG05_4_2,Length=0.017,Units=km
new line.RML10176731 bus1=BBT4282608.2.0,bus2=RML1060176731.2.0,Phases=1,Linecode=CABBTG02_4_1,Length=0.017,Units=km
new line.RML10176897 bus1=BBT841793.1.0,bus2=RML1060176897.1.0,Phases=1,Linecode=CABBTG02_4_1,Length=0.017,Units=km
new line.RML10177486 bus1=BBT3348402.1.2.0,bus2=RML1060177486.1.2.0,Phases=2,Linecode=CABBTG05_4_2,Length=0.017,Units=km
new line.RML10177640 bus1=BBT4432975.1.2.0,bus2=RML1060177640.1.2.0,Phases=2,Linecode=CABBTG05_4_2,Length=0.017,Units=km
new line.RML10177814 bus1=BBT4275986.1.2.0,bus2=RML1060177814.1.2.0,Phases=2,Linecode=CABBTG05_4_2,Length=0.017,Units=km
new line.RML10177838 bus1=BBT21198158.1.2.0,bus2=RML1060177838.1.2.0,Phases=2,Linecode=CABBTG05_4_2,Length=0.017,Units=km
new line.RML10177914 bus1=BBT847393.2.0,bus2=RML1060177914.2.0,Phases=1,Linecode=CABBTG02_4_1,Length=0.017,Units=km
new line.RML10179000 bus1=BBT844327.1.0,bus2=RML1060179000.1.0,Phases=1,Linecode=CABBTG02_4_1,Length=0.017,Units=km
new line.RML10179127 bus1=BBT839154.1.2.3.0,bus2=RML1060179127.1.2.3.0,Phases=3,Linecode=CABBTG12_4_3,Length=0.017,Units=km
new line.RML10228767 bus1=BBT4158820.2.0,bus2=RML1060228767.2.0,Phases=1,Linecode=CABBTG02_4_1,Length=0.017,Units=km
new line.RML10228771 bus1=BBT4159499.1.2.0,bus2=RML1060228771.1.2.0,Phases=2,Linecode=CABBTG13_4_2,Length=0.017,Units=km
new line.RML10228773 bus1=BBT4159499.1.0,bus2=RML1060228773.1.0,Phases=1,Linecode=CABBTG02_4_1,Length=0.017,Units=km
new line.RML10228774 bus1=BBT4159492.1.2.0,bus2=RML1060228774.1.2.0,Phases=2,Linecode=CABBTG13_4_2,Length=0.017,Units=km
new line.RML10229726 bus1=BBT25949737.1.0,bus2=RML1060229726.1.0,Phases=1,Linecode=CABBTG02_4_1,Length=0.017,Units=km
new line.RML10232746 bus1=BBT1177464.2.0,bus2=RML1060232746.2.0,Phases=1,Linecode=CABBTG02_4_1,Length=0.017,Units=km
new line.RML10232761 bus1=BBT835024.1.2.0,bus2=RML1060232761.1.2.0,Phases=2,Linecode=CABBTG13_4_2,Length=0.017,Units=km
new line.RML10232787 bus1=BBT83303537.2.0,bus2=RML1060232787.2.0,Phases=1,Linecode=CABBTG02_4_1,Length=0.017,Units=km
new line.RML10232818 bus1=BBT118212278.1.0,bus2=RML1060232818.1.0,Phases=1,Linecode=CABBTG02_4_1,Length=0.017,Units=km
new line.RML10232821 bus1=BBT118212278.2.0,bus2=RML1060232821.2.0,Phases=1,Linecode=CABBTG02_4_1,Length=0.017,Units=km
new line.RML10232831 bus1=BBT119117119.1.2.0,bus2=RML1060232831.1.2.0,Phases=2,Linecode=CABBTG13_4_2,Length=0.017,Units=km
new line.RML10232852 bus1=BBT131490270.1.0,bus2=RML1060232852.1.0,Phases=1,Linecode=CABBTG02_4_1,Length=0.017,Units=km
new line.RML10232857 bus1=BBT83303537.1.0,bus2=RML1060232857.1.0,Phases=1,Linecode=CABBTG02_4_1,Length=0.017,Units=km
new line.RML10232890 bus1=BBT4387055.2.0,bus2=RML1060232890.2.0,Phases=1,Linecode=CABBTG02_4_1,Length=0.017,Units=km
new line.RML10232902 bus1=BBT85051374.1.0,bus2=RML1060232902.1.0,Phases=1,Linecode=CABBTG02_4_1,Length=0.017,Units=km
new line.RML10232977 bus1=BBT83304223.2.0,bus2=RML1060232977.2.0,Phases=1,Linecode=CABBTG02_4_1,Length=0.017,Units=km
new line.RML10232990 bus1=BBT4393110.2.0,bus2=RML1060232990.2.0,Phases=1,Linecode=CABBTG02_4_1,Length=0.017,Units=km
new line.RML10233039 bus1=BBT4293773.1.0,bus2=RML1060233039.1.0,Phases=1,Linecode=CABBTG02_4_1,Length=0.017,Units=km
new line.RML10233042 bus1=BBT109280110.1.2.0,bus2=RML1060233042.1.2.0,Phases=2,Linecode=CABBTG13_4_2,Length=0.017,Units=km
new line.RML10233121 bus1=BBT81553873.1.2.0,bus2=RML1060233121.1.2.0,Phases=2,Linecode=CABBTG13_4_2,Length=0.017,Units=km
new line.RML10082416 bus1=BBT839357.1.2.0,bus2=RML1060082416.1.2.0,Phases=2,Linecode=CABBTG05_4_2,Length=0.017,Units=km
new line.RML10083791 bus1=BBT835402.1.2.0,bus2=RML1060083791.1.2.0,Phases=2,Linecode=CABBTG05_4_2,Length=0.012000000,Units=km
new line.RML10083793 bus1=BBT839770.1.2.0,bus2=RML1060083793.1.2.0,Phases=2,Linecode=CABBTG05_4_2,Length=0.017,Units=km
new line.RML10083797 bus1=BBT849584.2.0,bus2=RML1060083797.2.0,Phases=1,Linecode=CABBTG02_4_1,Length=0.017,Units=km
new line.RML10089593 bus1=BBT149320615.1.2.0,bus2=RML1060089593.1.2.0,Phases=2,Linecode=CABBTG04_4_2,Length=0.017,Units=km
new line.RML10090009 bus1=BBT1177156.1.2.0,bus2=RML1060090009.1.2.0,Phases=2,Linecode=CABBTG04_4_2,Length=0.017,Units=km
new line.RML10114579 bus1=BBT4110527.1.0,bus2=RML1060114579.1.0,Phases=1,Linecode=CABBTG02_4_1,Length=0.017,Units=km
new line.RML10117625 bus1=BBT4118843.1.2.0,bus2=RML1060117625.1.2.0,Phases=2,Linecode=CABBTG05_4_2,Length=0.022000000,Units=km
new line.RML10117670 bus1=BBT4159016.1.2.0,bus2=RML1060117670.1.2.0,Phases=2,Linecode=CABBTG05_4_2,Length=0.010000000,Units=km
new line.RML10119000 bus1=BBT844208.1.0,bus2=RML1060119000.1.0,Phases=1,Linecode=CABBTG02_4_1,Length=0.017,Units=km
new line.RML10119005 bus1=BBT1179529.1.2.3.0,bus2=RML1060119005.1.2.3.0,Phases=3,Linecode=CABBTG06_4_3,Length=0.017,Units=km
new line.RML10119008 bus1=BBT3556400.1.2.0,bus2=RML1060119008.1.2.0,Phases=2,Linecode=CABBTG05_4_2,Length=0.017,Units=km
new line.RML10119027 bus1=BBT843403.1.2.0,bus2=RML1060119027.1.2.0,Phases=2,Linecode=CABBTG05_4_2,Length=0.017,Units=km
new line.RML10180322 bus1=BBT3601970.1.2.0,bus2=RML1060180322.1.2.0,Phases=2,Linecode=CABBTG05_4_2,Length=0.017,Units=km
new line.RML10180387 bus1=BBT858075.1.2.0,bus2=RML1060180387.1.2.0,Phases=2,Linecode=CABBTG05_4_2,Length=0.017,Units=km
new line.RML10180410 bus1=BBT3753485.1.2.0,bus2=RML1060180410.1.2.0,Phases=2,Linecode=CABBTG05_4_2,Length=0.017,Units=km
new line.RML10180459 bus1=BBT3601970.1.2.0,bus2=RML1060180459.1.2.0,Phases=2,Linecode=CABBTG05_4_2,Length=0.017,Units=km
new line.RML10181425 bus1=BBT861932.1.2.0,bus2=RML1060181425.1.2.0,Phases=2,Linecode=CABBTG05_4_2,Length=0.017,Units=km
new line.RML10181490 bus1=BBT4505264.1.2.0,bus2=RML1060181490.1.2.0,Phases=2,Linecode=CABBTG05_4_2,Length=0.017,Units=km
new line.RML10181493 bus1=BBT858152.1.2.0,bus2=RML1060181493.1.2.0,Phases=2,Linecode=CABBTG05_4_2,Length=0.017,Units=km
new line.RML10181579 bus1=BBT120823019.1.2.0,bus2=RML1060181579.1.2.0,Phases=2,Linecode=CABBTG05_4_2,Length=0.017,Units=km
new line.RML10181668 bus1=BBT120823019.1.2.0,bus2=RML1060181668.1.2.0,Phases=2,Linecode=CABBTG05_4_2,Length=0.017,Units=km
new line.RML10182182 bus1=BBT128078561.1.2.0,bus2=RML1060182182.1.2.0,Phases=2,Linecode=CABBTG05_4_2,Length=0.017,Units=km
new line.RML10182698 bus1=BBT838699.1.2.0,bus2=RML1060182698.1.2.0,Phases=2,Linecode=CABBTG13_4_2,Length=0.017,Units=km
new line.RML10182722 bus1=BBT861722.1.2.0,bus2=RML1060182722.1.2.0,Phases=2,Linecode=CABBTG05_4_2,Length=0.017,Units=km
new line.RML10182747 bus1=BBT3464805.1.2.0,bus2=RML1060182747.1.2.0,Phases=2,Linecode=CABBTG05_4_2,Length=0.017,Units=km
new line.RML10182843 bus1=BBT858432.1.2.0,bus2=RML1060182843.1.2.0,Phases=2,Linecode=CABBTG13_4_2,Length=0.017,Units=km
new line.RML10182891 bus1=BBT851516.2.0,bus2=RML1060182891.2.0,Phases=1,Linecode=CABBTG02_4_1,Length=0.017,Units=km
new line.RML10182943 bus1=BBT3602173.1.2.0,bus2=RML1060182943.1.2.0,Phases=2,Linecode=CABBTG04_4_2,Length=0.017,Units=km
new line.RML10183863 bus1=BBT4185623.1.2.0,bus2=RML1060183863.1.2.0,Phases=2,Linecode=CABBTG05_4_2,Length=0.017,Units=km
new line.RML10183883 bus1=BBT858824.1.2.0,bus2=RML1060183883.1.2.0,Phases=2,Linecode=CABBTG05_4_2,Length=0.017,Units=km
new line.RML10183885 bus1=BBT863997.1.2.0,bus2=RML1060183885.1.2.0,Phases=2,Linecode=CABBTG05_4_2,Length=0.017,Units=km
new line.RML10184035 bus1=BBT3608956.1.2.0,bus2=RML1060184035.1.2.0,Phases=2,Linecode=CABBTG05_4_2,Length=0.017,Units=km
new line.RML10186496 bus1=BBT853735.1.2.0,bus2=RML1060186496.1.2.0,Phases=2,Linecode=CABBTG13_4_2,Length=0.017,Units=km
new line.RML10186541 bus1=BBT4118262.2.0,bus2=RML1060186541.2.0,Phases=1,Linecode=CABBTG02_4_1,Length=0.017,Units=km
new line.RML10186550 bus1=BBT846511.1.2.3.0,bus2=RML1060186550.1.2.3.0,Phases=3,Linecode=CABBTG10_4_3,Length=0.017,Units=km
new line.RML10186571 bus1=BBT853630.1.2.0,bus2=RML1060186571.1.2.0,Phases=2,Linecode=CABBTG13_4_2,Length=0.017,Units=km
new line.RML10186574 bus1=BBT856864.2.0,bus2=RML1060186574.2.0,Phases=1,Linecode=CABBTG02_4_1,Length=0.017,Units=km
new line.RML10186576 bus1=BBT849969.1.2.0,bus2=RML1060186576.1.2.0,Phases=2,Linecode=CABBTG13_4_2,Length=0.017,Units=km
new line.RML10186586 bus1=BBT4280291.2.0,bus2=RML1060186586.2.0,Phases=1,Linecode=CABBTG02_4_1,Length=0.017,Units=km
new line.RML10186589 bus1=BBT4280291.1.2.0,bus2=RML1060186589.1.2.0,Phases=2,Linecode=CABBTG13_4_2,Length=0.017,Units=km
new line.RML10186620 bus1=BBT857312.2.0,bus2=RML1060186620.2.0,Phases=1,Linecode=CABBTG02_4_1,Length=0.017,Units=km
new line.RML10186667 bus1=BBT856843.1.0,bus2=RML1060186667.1.0,Phases=1,Linecode=CABBTG02_4_1,Length=0.017,Units=km
new line.RML10186668 bus1=BBT847365.1.2.0,bus2=RML1060186668.1.2.0,Phases=2,Linecode=CABBTG13_4_2,Length=0.017,Units=km
new line.RML10186701 bus1=BBT856857.2.0,bus2=RML1060186701.2.0,Phases=1,Linecode=CABBTG02_4_1,Length=0.017,Units=km
new line.RML10186714 bus1=BBT4119081.1.2.0,bus2=RML1060186714.1.2.0,Phases=2,Linecode=CABBTG13_4_2,Length=0.017,Units=km
new line.RML10186723 bus1=BBT844208.2.0,bus2=RML1060186723.2.0,Phases=1,Linecode=CABBTG02_4_1,Length=0.017,Units=km
new line.RML10186731 bus1=BBT842969.2.0,bus2=RML1060186731.2.0,Phases=1,Linecode=CABBTG02_4_1,Length=0.017,Units=km
new line.RML10186736 bus1=BBT4658837.2.0,bus2=RML1060186736.2.0,Phases=1,Linecode=CABBTG02_4_1,Length=0.017,Units=km
new line.RML10186739 bus1=BBT4119109.2.0,bus2=RML1060186739.2.0,Phases=1,Linecode=CABBTG02_4_1,Length=0.017,Units=km
new line.RML10186754 bus1=BBT844551.2.0,bus2=RML1060186754.2.0,Phases=1,Linecode=CABBTG02_4_1,Length=0.017,Units=km
new line.RML10186761 bus1=BBT4119172.2.0,bus2=RML1060186761.2.0,Phases=1,Linecode=CABBTG02_4_1,Length=0.017,Units=km
new line.RML10186765 bus1=BBT90996082.2.0,bus2=RML1060186765.2.0,Phases=1,Linecode=CABBTG02_4_1,Length=0.017,Units=km
new line.RML10186771 bus1=BBT839329.1.2.0,bus2=RML1060186771.1.2.0,Phases=2,Linecode=CABBTG13_4_2,Length=0.017,Units=km
new line.RML10186777 bus1=BBT845965.2.0,bus2=RML1060186777.2.0,Phases=1,Linecode=CABBTG02_4_1,Length=0.017,Units=km
new line.RML10268063 bus1=BBT3593080.1.2.0,bus2=RML1060268063.1.2.0,Phases=2,Linecode=CABBTG05_4_2,Length=0.017,Units=km
new line.RML10268541 bus1=BBT847260.1.2.3.0,bus2=RML1060268541.1.2.3.0,Phases=3,Linecode=CABBTG06_4_3,Length=0.017,Units=km
new line.RML10034759 bus1=BBT834919.1.0,bus2=RML1060034759.1.0,Phases=1,Linecode=CABBTG02_4_1,Length=0.017,Units=km
new line.RML10035649 bus1=BBT834919.1.2.0,bus2=RML1060035649.1.2.0,Phases=2,Linecode=CABBTG05_4_2,Length=0.017,Units=km
new line.RML10036201 bus1=BBT857809.1.0,bus2=RML1060036201.1.0,Phases=1,Linecode=CABBTG02_4_1,Length=0.017,Units=km
new line.RML10039444 bus1=BBT148226264.1.0,bus2=RML1060039444.1.0,Phases=1,Linecode=CABBTG01_4_1,Length=0.017,Units=km
new line.RML10039701 bus1=BBT836480.1.2.0,bus2=RML1060039701.1.2.0,Phases=2,Linecode=CABBTG05_4_2,Length=0.017,Units=km
new line.RML10106856 bus1=BBT845958.1.2.0,bus2=RML1060106856.1.2.0,Phases=2,Linecode=CABBTG05_4_2,Length=0.017,Units=km
new line.RML10106865 bus1=BBT857291.1.2.0,bus2=RML1060106865.1.2.0,Phases=2,Linecode=CABBTG05_4_2,Length=0.017,Units=km
new line.RML10106868 bus1=BBT854911.1.2.0,bus2=RML1060106868.1.2.0,Phases=2,Linecode=CABBTG05_4_2,Length=0.017,Units=km
new line.RML10106873 bus1=BBT4475752.1.2.0,bus2=RML1060106873.1.2.0,Phases=2,Linecode=CABBTG05_4_2,Length=0.017,Units=km
new line.RML10106874 bus1=BBT857011.1.2.0,bus2=RML1060106874.1.2.0,Phases=2,Linecode=CABBTG05_4_2,Length=0.017,Units=km
new line.RML10106877 bus1=BBT4320835.1.2.0,bus2=RML1060106877.1.2.0,Phases=2,Linecode=CABBTG05_4_2,Length=0.017,Units=km
new line.RML10106878 bus1=BBT855520.1.2.0,bus2=RML1060106878.1.2.0,Phases=2,Linecode=CABBTG05_4_2,Length=0.017,Units=km
new line.RML10109774 bus1=BBT1179249.1.2.0,bus2=RML1060109774.1.2.0,Phases=2,Linecode=CABBTG05_4_2,Length=0.017,Units=km
new line.RML10112255 bus1=BBT850466.1.2.0,bus2=RML1060112255.1.2.0,Phases=2,Linecode=CABBTG05_4_2,Length=0.017,Units=km
new line.RML10112262 bus1=BBT844908.1.2.0,bus2=RML1060112262.1.2.0,Phases=2,Linecode=CABBTG05_4_2,Length=0.017,Units=km
new line.RML10113720 bus1=BBT855408.1.2.0,bus2=RML1060113720.1.2.0,Phases=2,Linecode=CABBTG05_4_2,Length=0.017,Units=km
new line.RML10113722 bus1=BBT856787.1.2.0,bus2=RML1060113722.1.2.0,Phases=2,Linecode=CABBTG05_4_2,Length=0.017,Units=km
new line.RML10113724 bus1=BBT4159051.1.2.0,bus2=RML1060113724.1.2.0,Phases=2,Linecode=CABBTG05_4_2,Length=0.017,Units=km
new line.RML10113731 bus1=BBT849339.1.2.0,bus2=RML1060113731.1.2.0,Phases=2,Linecode=CABBTG05_4_2,Length=0.017,Units=km
new line.RML10113737 bus1=BBT4159086.1.2.0,bus2=RML1060113737.1.2.0,Phases=2,Linecode=CABBTG05_4_2,Length=0.017,Units=km
new line.RML10113938 bus1=BBT4338580.1.2.0,bus2=RML1060113938.1.2.0,Phases=2,Linecode=CABBTG05_4_2,Length=0.020000000,Units=km
new line.RML10114390 bus1=BBT4119137.1.2.0,bus2=RML1060114390.1.2.0,Phases=2,Linecode=CABBTG05_4_2,Length=0.017,Units=km
new line.RML10114418 bus1=BBT1181748.1.2.0,bus2=RML1060114418.1.2.0,Phases=2,Linecode=CABBTG05_4_2,Length=0.017,Units=km
new line.RML10114464 bus1=BBT149334716.1.0,bus2=RML1060114464.1.0,Phases=1,Linecode=CABBTG01_4_1,Length=0.010000000,Units=km
new line.RML10163480 bus1=BBT4383590.1.2.0,bus2=RML1060163480.1.2.0,Phases=2,Linecode=CABBTG04_4_2,Length=0.017,Units=km
new line.RML10163512 bus1=BBT831881.1.0,bus2=RML1060163512.1.0,Phases=1,Linecode=CABBTG01_4_1,Length=0.017,Units=km
new line.RML10166495 bus1=BBT844327.1.0,bus2=RML1060166495.1.0,Phases=1,Linecode=CABBTG01_4_1,Length=0.017,Units=km
new line.RML10168154 bus1=BBT4420571.1.2.0,bus2=RML1060168154.1.2.0,Phases=2,Linecode=CABBTG05_4_2,Length=0.017,Units=km
new line.RML10168927 bus1=BBT4338419.1.2.0,bus2=RML1060168927.1.2.0,Phases=2,Linecode=CABBTG13_4_2,Length=0.017,Units=km
new line.RML10169165 bus1=BBT854729.2.0,bus2=RML1060169165.2.0,Phases=1,Linecode=CABBTG01_4_1,Length=0.017,Units=km
new line.RML10169189 bus1=BBT858376.1.2.0,bus2=RML1060169189.1.2.0,Phases=2,Linecode=CABBTG05_4_2,Length=0.017,Units=km
new line.RML10169471 bus1=BBT835626.1.2.3.0,bus2=RML1060169471.1.2.3.0,Phases=3,Linecode=CABBTG11_4_3,Length=0.017,Units=km
...